*Heading
** Job name: Job-qiu-ban Model name: Model-1
** Generated by: Abaqus/CAE 2016
*Preprint, echo=NO, model=NO, history=NO, contact=NO
**
** PARTS
**
*Part, name=Part-ban
*Node
      1,           0.,         -15.,           0.
      2,           0.,         -15.,          40.
      3,         -40.,         -15.,           0.
      4,           0.,           0.,          40.
      5,           0.,           0.,           0.
      6,         -40.,           0.,           0.
      7,          40.,         -15.,           0.
      8,          40.,           0.,           0.
      9,         -38.,         -15.,           0.
     10,         -36.,         -15.,           0.
     11,         -34.,         -15.,           0.
     12,         -32.,         -15.,           0.
     13,         -30.,         -15.,           0.
     14,         -28.,         -15.,           0.
     15,         -26.,         -15.,           0.
     16,         -24.,         -15.,           0.
     17,         -22.,         -15.,           0.
     18,         -20.,         -15.,           0.
     19,         -18.,         -15.,           0.
     20,         -16.,         -15.,           0.
** ... 7558 like lines cut
*Element, type=C3D8R
   1,  773,  774, 3103, 2789,   13,   14,  274,  273
   2,  774,  775, 3104, 3103,   14,   15,  275,  274
   3,  775,  776, 3105, 3104,   15,   16,  276,  275
   4,  776,  777, 3106, 3105,   16,   17,  277,  276
   5,  777,  778, 3107, 3106,   17,   18,  278,  277
   6,  778,  779, 3108, 3107,   18,   19,  279,  278
   7,  779,  780, 3109, 3108,   19,   20,  280,  279
   8,  780,  781, 3110, 3109,   20,   21,  281,  280
   9,  781,  782, 3111, 3110,   21,   22,  282,  281
  10,  782,  783, 3112, 3111,   22,   23,  283,  282
  11,  783,  784, 3113, 3112,   23,   24,  284,  283
  12,  784,  785, 3114, 3113,   24,   25,  285,  284
  13,  785,  786, 3115, 3114,   25,   26,  286,  285
  14,  786,  787, 3116, 3115,   26,   27,  287,  286
  15,  787,   54,  633, 3116,   27,    1,   28,  287
  16, 2789, 3103, 3117, 2790,  273,  274,  289,  288
  17, 3103, 3104, 3118, 3117,  274,  275,  290,  289
  18, 3104, 3105, 3119, 3118,  275,  276,  291,  290
  19, 3105, 3106, 3120, 3119,  276,  277,  292,  291
  20, 3106, 3107, 3121, 3120,  277,  278,  293,  292
** ... 6300 like lines cut
*Nset, nset=Set-1, generate
    1,  7578,     1
*Elset, elset=Set-1, generate
    1,  6320,     1
** Section: Section-1
*Solid Section, elset=Set-1, material=Material-1
,
*End Part
**  
*Part, name=Part-qiu
*Node
      1,           0.,           5.,           5.
      2,           0.,           0.,           0.
      3,           5.,           5.,           0.
      4,           0.,           5.,           0.
      5,           0.,          10.,           0.
      6,          -5.,           5.,           0.
      7,   4.97592354,           5.,  0.490085691
      8,   4.90392637,           5.,  0.975451589
      9,   4.78470182,           5.,   1.45142341
     10,   4.61939764,           5.,   1.91341722
     11,   4.40960646,           5.,   2.35698366
     12,   4.15734816,           5.,    2.7778511
     13,   3.86505222,           5.,   3.17196631
     14,   3.53553391,           5.,   3.53553391
     15,   3.17196631,           5.,   3.86505222
     16,    2.7778511,           5.,   4.15734816
     17,   2.35698366,           5.,   4.40960646
     18,   1.91341722,           5.,   4.61939764
     19,   1.45142341,           5.,   4.78470182
     20,  0.975451589,           5.,   4.90392637
** ... 4183 like lines cut
*Element, type=C3D8R
  1,  420,  421, 1671, 1552,   14,   15,  173,  172
  2,  421,  422, 1672, 1671,   15,   16,  174,  173
  3,  422,  423, 1673, 1672,   16,   17,  175,  174
  4,  423,  424, 1674, 1673,   17,   18,  176,  175
  5,  424,  425, 1675, 1674,   18,   19,  177,  176
  6,  425,  426, 1676, 1675,   19,   20,  178,  177
  7,  426,  427, 1677, 1676,   20,   21,  179,  178
  8,  427,   45,  341, 1677,   21,    1,   22,  179
  9, 1552, 1671, 1678, 1553,  172,  173,  181,  180
 10, 1671, 1672, 1679, 1678,  173,  174,  182,  181
 11, 1672, 1673, 1680, 1679,  174,  175,  183,  182
 12, 1673, 1674, 1681, 1680,  175,  176,  184,  183
 13, 1674, 1675, 1682, 1681,  176,  177,  185,  184
 14, 1675, 1676, 1683, 1682,  177,  178,  186,  185
 15, 1676, 1677, 1684, 1683,  178,  179,  187,  186
 16, 1677,  341,  342, 1684,  179,   22,   23,  187
 17, 1553, 1678, 1685, 1554,  180,  181,  189,  188
 18, 1678, 1679, 1686, 1685,  181,  182,  190,  189
 19, 1679, 1680, 1687, 1686,  182,  183,  191,  190
 20, 1680, 1681, 1688, 1687,  183,  184,  192,  191
** ... 3564 like lines cut
*Nset, nset=Set-1, generate
    1,  4203,     1
*Elset, elset=Set-1, generate
    1,  3584,     1
** Section: Section-1
*Solid Section, elset=Set-1, material=Material-1
,
*End Part
**  
**
** ASSEMBLY
**
*Assembly, name=Assembly
**  
*Instance, name=Part-ban-1, part=Part-ban
*End Instance
**  
*Instance, name=Part-qiu-1, part=Part-qiu
*End Instance
**  
*Nset, nset=Set-Fix, instance=Part-ban-1
    2,    3,    4,    6,    7,    8,   55,   56,   57,   58,   59,   60,   61,   62,   63,   64
   65,   66,   67,   68,   69,   70,   71,   72,   73,   74,   75,   76,   77,   78,   79,   80
   81,   82,   83,   84,   85,   86,   87,   88,   89,   90,   91,   92,   93,   94,   95,   96
   97,   98,  119,  120,  121,  122,  123,  124,  125,  126,  127,  128,  129,  130,  131,  132
  133,  134,  135,  136,  137,  138,  139,  140,  141,  142,  143,  144,  145,  146,  147,  148
  168,  169,  170,  171,  172,  173,  174,  175,  176,  177,  178,  179,  180,  181,  182,  183
  184,  185,  186,  187,  188,  189,  190,  191,  192,  193,  194,  195,  196,  197,  217,  218
  219,  220,  221,  222,  223,  224,  225,  226,  227,  228,  229,  230,  231,  232,  233,  234
  235,  236,  237,  238,  239,  240,  241,  242,  243,  244,  245,  246,  247,  248,  249,  250
  251,  252,  253,  906,  907,  908,  909,  910,  911,  912,  913,  914,  915,  916,  917,  918
  919,  920,  921,  922,  923,  924,  925,  926,  927,  928,  929,  930,  931,  932,  933,  934
  935,  936,  937,  938,  939,  940,  941,  942,  943,  944,  945,  946,  947,  948,  949,  950
  951,  952,  953,  954,  955,  956,  957,  958,  959,  960,  961,  962,  963,  964,  965,  966
  967,  968,  969,  970,  971,  972,  973,  974,  975,  976,  977,  978,  979,  980,  981,  982
  983,  984,  985,  986,  987,  988,  989,  990,  991,  992,  993,  994,  995,  996,  997,  998
  999, 1000, 1001, 1002, 1003, 1004, 1005, 1006, 1007, 1008, 1009, 1010, 1011, 1012, 1013, 1014
 1015, 1016, 1017, 1018, 1019, 1020, 1021, 1022, 1023, 1024, 1025, 1026, 1027, 1028, 1029, 1030
 1031, 1032, 1033, 1034, 1035, 1036, 1037, 1038, 1039, 1040, 1041, 1042, 1043, 1044, 1045, 1046
 1047, 1048, 1049, 1050, 1051, 1052, 1053, 1054, 1055, 1056, 1057, 1058, 1059, 1060, 1061, 1062
 1063, 1064, 1065, 1066, 1067, 1068, 1069, 1070, 1071, 1072, 1073, 1074, 1075, 1076, 1077, 1078
** ... 16 like lines cut
*Elset, elset=Set-Fix, instance=Part-ban-1
  965,  970,  975,  980,  985,  990,  995, 1000, 1005, 1010, 1015, 1020, 1025, 1030, 1035, 1040
 1045, 1050, 1055, 1060, 1065, 1070, 1075, 1080, 1085, 1090, 1095, 1100, 1105, 1110, 1115, 1120
 1125, 1130, 1135, 1140, 1145, 1150, 1155, 1160, 1165, 1170, 1175, 1180, 1185, 1190, 1195, 1200
 1205, 1210, 1215, 1220, 1225, 1230, 1235, 1240, 1245, 1250, 1255, 1260, 1261, 1262, 1263, 1264
 1265, 1266, 1267, 1268, 1269, 1270, 1271, 1272, 1273, 1274, 1275, 1276, 1341, 1342, 1343, 1344
 1345, 1346, 1347, 1348, 1349, 1350, 1351, 1352, 1353, 1354, 1355, 1356, 1421, 1422, 1423, 1424
 1425, 1426, 1427, 1428, 1429, 1430, 1431, 1432, 1433, 1434, 1435, 1436, 1501, 1502, 1503, 1504
 1505, 1506, 1507, 1508, 1509, 1510, 1511, 1512, 1513, 1514, 1515, 1516, 1585, 1590, 1595, 1600
 1605, 1610, 1615, 1620, 1625, 1630, 1635, 1640, 1645, 1650, 1655, 1660, 1665, 1670, 1675, 1680
 1685, 1690, 1695, 1700, 1705, 1710, 1715, 1720, 1725, 1730, 1735, 1740, 1745, 1750, 1755, 1760
 1765, 1770, 1775, 1780, 1785, 1790, 1795, 1800, 1805, 1810, 1815, 1820, 1825, 1830, 1835, 1840
 1845, 1850, 1855, 1860, 1865, 1870, 1875, 1880, 2845, 2850, 2855, 2860, 2865, 2870, 2875, 2880
 2885, 2890, 2895, 2900, 2905, 2910, 2915, 2920, 2925, 2930, 2935, 2940, 2945, 2950, 2955, 2960
 2965, 2970, 2975, 2980, 2985, 2990, 2995, 3000, 3005, 3010, 3015, 3020, 3025, 3030, 3035, 3040
 3045, 3050, 3055, 3060, 3065, 3070, 3075, 3080, 3085, 3090, 3095, 3100, 3105, 3110, 3115, 3120
 3125, 3130, 3135, 3140, 3145, 3150, 3155, 3160, 3161, 3162, 3163, 3164, 3165, 3166, 3167, 3168
 3169, 3170, 3171, 3172, 3173, 3174, 3175, 3236, 3237, 3238, 3239, 3240, 3241, 3242, 3243, 3244
 3245, 3246, 3247, 3248, 3249, 3250, 3311, 3312, 3313, 3314, 3315, 3316, 3317, 3318, 3319, 3320
 3321, 3322, 3323, 3324, 3325, 3386, 3387, 3388, 3389, 3390, 3391, 3392, 3393, 3394, 3395, 3396
 3397, 3398, 3399, 3400, 4425, 4430, 4435, 4440, 4445, 4450, 4455, 4460, 4465, 4470, 4475, 4480
** ... 11 like lines cut
*Nset, nset=Set-Symm, instance=Part-ban-1
    1,    3,    5,    6,    7,    8,    9,   10,   11,   12,   13,   14,   15,   16,   17,   18
   19,   20,   21,   22,   23,   24,   25,   26,   27,   48,   49,   50,   51,   52,   53,   54
   92,   93,   94,   95,   96,   97,   98,  149,  150,  151,  152,  153,  154,  155,  156,  157
  158,  159,  160,  161,  162,  163,  164,  165,  166,  167,  198,  199,  200,  201,  202,  203
  204,  205,  206,  207,  208,  209,  210,  211,  212,  213,  214,  215,  216,  217,  218,  219
  220,  221,  222,  223,  254,  255,  256,  257,  258,  259,  260,  261,  262,  263,  264,  265
  266,  267,  268,  269,  270,  271,  272,  773,  774,  775,  776,  777,  778,  779,  780,  781
  782,  783,  784,  785,  786,  787,  788,  789,  790,  791,  792,  793,  794,  795,  796,  797
  798,  799,  800,  801,  802,  803,  804,  805,  806,  807,  808,  809,  810,  811,  812,  813
  814,  815,  816,  817,  818,  819,  820,  821,  822,  823,  824,  825,  826,  827,  828,  829
  830,  831,  832,  833,  834,  835,  836,  837,  838,  839,  840,  841,  842,  843,  844,  845
  846,  847,  848,  849,  850,  851,  852,  853,  854,  855,  856,  857,  858,  859,  860,  861
  862,  863,  864,  865,  866,  867,  868,  869,  870,  871,  872,  873,  874,  875,  876,  877
  878,  879,  880,  881,  882,  883,  884,  885,  886,  887,  888,  889,  890,  891,  892,  893
  894,  895,  896,  897,  898,  899,  900,  901,  902,  903,  904,  905, 2046, 2047, 2048, 2049
 2050, 2051, 2052, 2053, 2054, 2055, 2056, 2057, 2058, 2059, 2060, 2061, 2062, 2063, 2064, 2065
 2066, 2067, 2068, 2069, 2070, 2071, 2072, 2073, 2074, 2075, 2076, 2077, 2078, 2079, 2080, 2081
 2082, 2083, 2084, 2085, 2086, 2087, 2088, 2089, 2090, 2091, 2092, 2093, 2094, 2095, 2096, 2097
 2098, 2099, 2100, 2101, 2102, 2103, 2104, 2105, 2106, 2107, 2108, 2109, 2110, 2111, 2112, 2113
 2114, 2115, 2116, 2117, 2118, 2119, 2120, 2121, 2122, 2123, 2124, 2125, 2126, 2127, 2128, 2129
** ... 4 like lines cut
*Nset, nset=Set-Symm, instance=Part-qiu-1
    2,    3,    4,    5,    6,   46,   47,   48,   49,   50,   51,   52,   53,   54,   55,   56
   57,   58,   59,   60,   61,   62,   63,   64,   65,   66,   67,   68,   69,   70,   71,   72
   73,   74,   75,   76,   77,   78,   79,   80,   81,   82,   83,   84,   85,   86,   87,   88
   89,   90,   91,   92,   93,   94,   95,   96,   97,   98,   99,  100,  101,  102,  118,  119
  120,  121,  122,  123,  124,  125,  126,  127,  128,  129,  130,  131,  132,  148,  149,  150
  151,  152,  153,  154,  155,  156,  157,  158,  159,  160,  161,  162,  163,  164,  165,  166
  167,  168,  169,  170,  171,  499,  500,  501,  502,  503,  504,  505,  506,  507,  508,  509
  510,  511,  512,  513,  514,  515,  516,  517,  518,  519,  520,  521,  522,  523,  524,  525
  526,  527,  528,  529,  530,  531,  532,  533,  534,  535,  536,  537,  538,  539,  540,  541
  542,  543,  544,  545,  546,  547,  548,  549,  550,  551,  552,  553,  554,  555,  556,  557
  558,  559,  560,  561,  562,  563,  564,  565,  566,  567,  568,  569,  570,  571,  572,  573
  574,  575,  576,  577,  578,  579,  580,  581,  582,  583,  584,  585,  586,  587,  588,  589
  590,  591,  592,  593,  594,  595,  596,  597,  598,  599,  600,  601,  602,  603,  604,  605
  606,  607,  608,  609,  610,  611,  612,  613,  614,  615,  616,  617,  618,  619,  620,  621
  622,  623,  624,  625,  626,  627,  628,  629,  630,  631,  632,  633,  634,  635,  636,  637
  638,  639,  640,  641,  642,  643,  644,  645,  646,  647,  648,  649,  650,  651,  652,  653
  654,  655,  656, 1074, 1075, 1076, 1077, 1078, 1079, 1080, 1081, 1082, 1083, 1084, 1085, 1086
 1087, 1088, 1089, 1090, 1091, 1092, 1093, 1094, 1095, 1096, 1097, 1098, 1099, 1100, 1101, 1102
 1103, 1104, 1105, 1106, 1107, 1108, 1109, 1110, 1111, 1112, 1113, 1114, 1115, 1116, 1117, 1118
 1119, 1120, 1121, 1122, 1123, 1124, 1125, 1126, 1127, 1128, 1129, 1130, 1131, 1132, 1133, 1134
** ... 7 like lines cut
*Elset, elset=Set-Symm, instance=Part-ban-1
    1,    2,    3,    4,    5,    6,    7,    8,    9,   10,   11,   12,   13,   14,   15,  241
  242,  243,  244,  245,  246,  247,  248,  249,  250,  251,  252,  253,  254,  255,  481,  482
  483,  484,  485,  486,  487,  488,  489,  490,  491,  492,  493,  494,  495,  721,  722,  723
  724,  725,  726,  727,  728,  729,  730,  731,  732,  733,  734,  735, 1276, 1292, 1308, 1324
 1340, 1356, 1372, 1388, 1404, 1420, 1436, 1452, 1468, 1484, 1500, 1516, 1532, 1548, 1564, 1580
 1881, 1882, 1883, 1884, 1945, 1946, 1947, 1948, 2009, 2010, 2011, 2012, 2073, 2074, 2075, 2076
 2137, 2138, 2139, 2140, 2201, 2202, 2203, 2204, 2265, 2266, 2267, 2268, 2329, 2330, 2331, 2332
 2393, 2394, 2395, 2396, 2457, 2458, 2459, 2460, 2521, 2522, 2523, 2524, 2585, 2586, 2587, 2588
 2649, 2650, 2651, 2652, 2713, 2714, 2715, 2716, 2777, 2778, 2779, 2780, 2841, 2842, 2843, 2844
 2845, 2921, 2922, 2923, 2924, 2925, 3001, 3002, 3003, 3004, 3005, 3081, 3082, 3083, 3084, 3085
 3476, 3492, 3508, 3524, 3540, 3556, 3572, 3588, 3604, 3620, 3636, 3652, 3668, 3684, 3700, 3716
 3732, 3748, 3764, 3780, 3796, 3812, 3828, 3844, 3860, 3876, 3892, 3908, 3924, 3940, 3956, 3972
 3988, 4004, 4020, 4036, 4052, 4068, 4084, 4100, 4116, 4132, 4148, 4164, 4180, 4196, 4212, 4228
 4244, 4260, 4276, 4292, 4308, 4324, 4340, 4356, 4372, 4388, 4404, 4420, 4421, 4422, 4423, 4424
 4425, 4501, 4502, 4503, 4504, 4505, 4581, 4582, 4583, 4584, 4585, 4661, 4662, 4663, 4664, 4665
 5056, 5072, 5088, 5104, 5120, 5136, 5152, 5168, 5184, 5200, 5216, 5232, 5248, 5264, 5280, 5296
 5312, 5328, 5344, 5360, 5376, 5392, 5408, 5424, 5440, 5456, 5472, 5488, 5504, 5520, 5536, 5552
 5568, 5584, 5600, 5616, 5632, 5648, 5664, 5680, 5696, 5712, 5728, 5744, 5760, 5776, 5792, 5808
 5824, 5840, 5856, 5872, 5888, 5904, 5920, 5936, 5952, 5968, 5984, 6000, 6016, 6032, 6048, 6064
 6080, 6096, 6112, 6128, 6144, 6160, 6176, 6192, 6208, 6224, 6240, 6256, 6272, 6288, 6304, 6320
*Elset, elset=Set-Symm, instance=Part-qiu-1
  136,  144,  152,  160,  168,  176,  184,  192,  200,  208,  216,  224,  232,  240,  248,  256
  257,  258,  259,  260,  261,  262,  263,  264,  321,  322,  323,  324,  325,  326,  327,  328
  392,  400,  408,  416,  424,  432,  440,  448,  456,  464,  472,  480,  488,  496,  504,  512
  520,  528,  536,  544,  552,  560,  568,  576,  584,  592,  600,  608,  616,  624,  632,  640
  648,  656,  664,  672,  680,  688,  696,  704,  712,  720,  728,  736,  744,  752,  760,  768
  776,  784,  792,  800,  808,  816,  824,  832,  840,  848,  856,  864,  872,  880,  888,  896
  897,  898,  899,  900,  901,  902,  903,  904,  905,  906,  907,  908,  909,  910,  911,  912
 1025, 1026, 1027, 1028, 1029, 1030, 1031, 1032, 1033, 1034, 1035, 1036, 1037, 1038, 1039, 1040
 1041, 1042, 1043, 1044, 1045, 1046, 1047, 1048, 1049, 1050, 1051, 1052, 1053, 1054, 1055, 1056
 1057, 1058, 1059, 1060, 1061, 1062, 1063, 1064, 1065, 1066, 1067, 1068, 1069, 1070, 1071, 1072
 1073, 1074, 1075, 1076, 1077, 1078, 1079, 1080, 1081, 1082, 1083, 1084, 1085, 1086, 1087, 1088
 1537, 1538, 1539, 1540, 1541, 1542, 1543, 1544, 1545, 1546, 1547, 1548, 1549, 1550, 1551, 1552
 1793, 1794, 1795, 1796, 1797, 1798, 1799, 1800, 1857, 1858, 1859, 1860, 1861, 1862, 1863, 1864
 2056, 2064, 2072, 2080, 2088, 2096, 2104, 2112, 2120, 2128, 2136, 2144, 2152, 2160, 2168, 2176
 2177, 2178, 2179, 2180, 2181, 2182, 2183, 2184, 2241, 2242, 2243, 2244, 2245, 2246, 2247, 2248
 2305, 2306, 2307, 2308, 2309, 2310, 2311, 2312, 2369, 2370, 2371, 2372, 2373, 2374, 2375, 2376
 2433, 2434, 2435, 2436, 2437, 2438, 2439, 2440, 2497, 2498, 2499, 2500, 2501, 2502, 2503, 2504
 2561, 2562, 2563, 2564, 2565, 2566, 2567, 2568, 2625, 2626, 2627, 2628, 2629, 2630, 2631, 2632
 2689, 2690, 2691, 2692, 2693, 2694, 2695, 2696, 2697, 2698, 2699, 2700, 2701, 2702, 2703, 2704
 2705, 2706, 2707, 2708, 2709, 2710, 2711, 2712, 2713, 2714, 2715, 2716, 2717, 2718, 2719, 2720
** ... 4 like lines cut
*Nset, nset=Set-qiu, instance=Part-qiu-1, generate
    1,  4203,     1
*Elset, elset=Set-qiu, instance=Part-qiu-1, generate
    1,  3584,     1
*Elset, elset=_Surf-ban_S4, internal, instance=Part-ban-1
 1884, 1888, 1892, 1896, 1900, 1904, 1908, 1912, 1916, 1920, 1924, 1928, 1932, 1936, 1940, 1944
 1948, 1952, 1956, 1960, 1964, 1968, 1972, 1976, 1980, 1984, 1988, 1992, 1996, 2000, 2004, 2008
 2012, 2016, 2020, 2024, 2028, 2032, 2036, 2040, 2044, 2048, 2052, 2056, 2060, 2064, 2068, 2072
 2076, 2080, 2084, 2088, 2092, 2096, 2100, 2104, 2108, 2112, 2116, 2120, 2124, 2128, 2132, 2136
 2140, 2144, 2148, 2152, 2156, 2160, 2164, 2168, 2172, 2176, 2180, 2184, 2188, 2192, 2196, 2200
 2204, 2208, 2212, 2216, 2220, 2224, 2228, 2232, 2236, 2240, 2244, 2248, 2252, 2256, 2260, 2264
 2268, 2272, 2276, 2280, 2284, 2288, 2292, 2296, 2300, 2304, 2308, 2312, 2316, 2320, 2324, 2328
 2332, 2336, 2340, 2344, 2348, 2352, 2356, 2360, 2364, 2368, 2372, 2376, 2380, 2384, 2388, 2392
 2396, 2400, 2404, 2408, 2412, 2416, 2420, 2424, 2428, 2432, 2436, 2440, 2444, 2448, 2452, 2456
 2460, 2464, 2468, 2472, 2476, 2480, 2484, 2488, 2492, 2496, 2500, 2504, 2508, 2512, 2516, 2520
 2524, 2528, 2532, 2536, 2540, 2544, 2548, 2552, 2556, 2560, 2564, 2568, 2572, 2576, 2580, 2584
 2588, 2592, 2596, 2600, 2604, 2608, 2612, 2616, 2620, 2624, 2628, 2632, 2636, 2640, 2644, 2648
 2652, 2656, 2660, 2664, 2668, 2672, 2676, 2680, 2684, 2688, 2692, 2696, 2700, 2704, 2708, 2712
 2716, 2720, 2724, 2728, 2732, 2736, 2740, 2744, 2748, 2752, 2756, 2760, 2764, 2768, 2772, 2776
 2780, 2784, 2788, 2792, 2796, 2800, 2804, 2808, 2812, 2816, 2820, 2824, 2828, 2832, 2836, 2840
 4744, 4748, 4752, 4756, 4760, 4764, 4768, 4772, 4776, 4780, 4784, 4788, 4792, 4796, 4800, 4804
 4808, 4812, 4816, 4820, 4824, 4828, 4832, 4836, 4840, 4844, 4848, 4852, 4856, 4860, 4864, 4868
 4872, 4876, 4880, 4884, 4888, 4892, 4896, 4900, 4904, 4908, 4912, 4916, 4920, 4924, 4928, 4932
 4936, 4940, 4944, 4948, 4952, 4956, 4960, 4964, 4968, 4972, 4976, 4980, 4984, 4988, 4992, 4996
 5000, 5004, 5008, 5012, 5016, 5020, 5024, 5028, 5032, 5036, 5040
*Elset, elset=_Surf-ban_S3, internal, instance=Part-ban-1
 1581, 1582, 1583, 1584, 1585, 1601, 1602, 1603, 1604, 1605, 1621, 1622, 1623, 1624, 1625, 1641
 1642, 1643, 1644, 1645, 1661, 1662, 1663, 1664, 1665, 1681, 1682, 1683, 1684, 1685, 1701, 1702
 1703, 1704, 1705, 1721, 1722, 1723, 1724, 1725, 1741, 1742, 1743, 1744, 1745, 1761, 1762, 1763
 1764, 1765, 1781, 1782, 1783, 1784, 1785, 1801, 1802, 1803, 1804, 1805, 1821, 1822, 1823, 1824
 1825, 1841, 1842, 1843, 1844, 1845, 1861, 1862, 1863, 1864, 1865, 5041, 5042, 5043, 5044, 5045
 5046, 5047, 5048, 5049, 5050, 5051, 5052, 5053, 5054, 5055, 5056, 5105, 5106, 5107, 5108, 5109
 5110, 5111, 5112, 5113, 5114, 5115, 5116, 5117, 5118, 5119, 5120, 5169, 5170, 5171, 5172, 5173
 5174, 5175, 5176, 5177, 5178, 5179, 5180, 5181, 5182, 5183, 5184, 5233, 5234, 5235, 5236, 5237
 5238, 5239, 5240, 5241, 5242, 5243, 5244, 5245, 5246, 5247, 5248, 5297, 5298, 5299, 5300, 5301
 5302, 5303, 5304, 5305, 5306, 5307, 5308, 5309, 5310, 5311, 5312, 5361, 5362, 5363, 5364, 5365
 5366, 5367, 5368, 5369, 5370, 5371, 5372, 5373, 5374, 5375, 5376, 5425, 5426, 5427, 5428, 5429
 5430, 5431, 5432, 5433, 5434, 5435, 5436, 5437, 5438, 5439, 5440, 5489, 5490, 5491, 5492, 5493
 5494, 5495, 5496, 5497, 5498, 5499, 5500, 5501, 5502, 5503, 5504, 5553, 5554, 5555, 5556, 5557
 5558, 5559, 5560, 5561, 5562, 5563, 5564, 5565, 5566, 5567, 5568, 5617, 5618, 5619, 5620, 5621
 5622, 5623, 5624, 5625, 5626, 5627, 5628, 5629, 5630, 5631, 5632, 5681, 5682, 5683, 5684, 5685
 5686, 5687, 5688, 5689, 5690, 5691, 5692, 5693, 5694, 5695, 5696, 5745, 5746, 5747, 5748, 5749
 5750, 5751, 5752, 5753, 5754, 5755, 5756, 5757, 5758, 5759, 5760, 5809, 5810, 5811, 5812, 5813
 5814, 5815, 5816, 5817, 5818, 5819, 5820, 5821, 5822, 5823, 5824, 5873, 5874, 5875, 5876, 5877
 5878, 5879, 5880, 5881, 5882, 5883, 5884, 5885, 5886, 5887, 5888, 5937, 5938, 5939, 5940, 5941
 5942, 5943, 5944, 5945, 5946, 5947, 5948, 5949, 5950, 5951, 5952
*Elset, elset=_Surf-ban_S2, internal, instance=Part-ban-1
 2841, 2842, 2843, 2844, 2845, 2846, 2847, 2848, 2849, 2850, 2851, 2852, 2853, 2854, 2855, 2856
 2857, 2858, 2859, 2860, 2861, 2862, 2863, 2864, 2865, 2866, 2867, 2868, 2869, 2870, 2871, 2872
 2873, 2874, 2875, 2876, 2877, 2878, 2879, 2880, 2881, 2882, 2883, 2884, 2885, 2886, 2887, 2888
 2889, 2890, 2891, 2892, 2893, 2894, 2895, 2896, 2897, 2898, 2899, 2900, 2901, 2902, 2903, 2904
 2905, 2906, 2907, 2908, 2909, 2910, 2911, 2912, 2913, 2914, 2915, 2916, 2917, 2918, 2919, 2920
 6001, 6002, 6003, 6004, 6005, 6006, 6007, 6008, 6009, 6010, 6011, 6012, 6013, 6014, 6015, 6016
 6017, 6018, 6019, 6020, 6021, 6022, 6023, 6024, 6025, 6026, 6027, 6028, 6029, 6030, 6031, 6032
 6033, 6034, 6035, 6036, 6037, 6038, 6039, 6040, 6041, 6042, 6043, 6044, 6045, 6046, 6047, 6048
 6049, 6050, 6051, 6052, 6053, 6054, 6055, 6056, 6057, 6058, 6059, 6060, 6061, 6062, 6063, 6064
 6065, 6066, 6067, 6068, 6069, 6070, 6071, 6072, 6073, 6074, 6075, 6076, 6077, 6078, 6079, 6080
*Surface, type=ELEMENT, name=Surf-ban
_Surf-ban_S4, S4
_Surf-ban_S3, S3
_Surf-ban_S2, S2
*Elset, elset=_Surf-qiu_S2, internal, instance=Part-qiu-1
    1,    2,    3,    4,    5,    6,    7,    8,    9,   10,   11,   12,   13,   14,   15,   16
   17,   18,   19,   20,   21,   22,   23,   24,   25,   26,   27,   28,   29,   30,   31,   32
   33,   34,   35,   36,   37,   38,   39,   40,   41,   42,   43,   44,   45,   46,   47,   48
   49,   50,   51,   52,   53,   54,   55,   56,   57,   58,   59,   60,   61,   62,   63,   64
  129,  130,  131,  132,  133,  134,  135,  136,  137,  138,  139,  140,  141,  142,  143,  144
  145,  146,  147,  148,  149,  150,  151,  152,  153,  154,  155,  156,  157,  158,  159,  160
  161,  162,  163,  164,  165,  166,  167,  168,  169,  170,  171,  172,  173,  174,  175,  176
  177,  178,  179,  180,  181,  182,  183,  184,  185,  186,  187,  188,  189,  190,  191,  192
  257,  258,  259,  260,  261,  262,  263,  264,  265,  266,  267,  268,  269,  270,  271,  272
  273,  274,  275,  276,  277,  278,  279,  280,  281,  282,  283,  284,  285,  286,  287,  288
  289,  290,  291,  292,  293,  294,  295,  296,  297,  298,  299,  300,  301,  302,  303,  304
  305,  306,  307,  308,  309,  310,  311,  312,  313,  314,  315,  316,  317,  318,  319,  320
 1793, 1794, 1795, 1796, 1797, 1798, 1799, 1800, 1801, 1802, 1803, 1804, 1805, 1806, 1807, 1808
 1809, 1810, 1811, 1812, 1813, 1814, 1815, 1816, 1817, 1818, 1819, 1820, 1821, 1822, 1823, 1824
 1825, 1826, 1827, 1828, 1829, 1830, 1831, 1832, 1833, 1834, 1835, 1836, 1837, 1838, 1839, 1840
 1841, 1842, 1843, 1844, 1845, 1846, 1847, 1848, 1849, 1850, 1851, 1852, 1853, 1854, 1855, 1856
 1921, 1922, 1923, 1924, 1925, 1926, 1927, 1928, 1929, 1930, 1931, 1932, 1933, 1934, 1935, 1936
 1937, 1938, 1939, 1940, 1941, 1942, 1943, 1944, 1945, 1946, 1947, 1948, 1949, 1950, 1951, 1952
 1953, 1954, 1955, 1956, 1957, 1958, 1959, 1960, 1961, 1962, 1963, 1964, 1965, 1966, 1967, 1968
 1969, 1970, 1971, 1972, 1973, 1974, 1975, 1976, 1977, 1978, 1979, 1980, 1981, 1982, 1983, 1984
** ... 4 like lines cut
*Elset, elset=_Surf-qiu_S3, internal, instance=Part-qiu-1
  897,  898,  899,  900,  901,  902,  903,  904,  913,  914,  915,  916,  917,  918,  919,  920
  929,  930,  931,  932,  933,  934,  935,  936,  945,  946,  947,  948,  949,  950,  951,  952
  961,  962,  963,  964,  965,  966,  967,  968,  977,  978,  979,  980,  981,  982,  983,  984
  993,  994,  995,  996,  997,  998,  999, 1000, 1009, 1010, 1011, 1012, 1013, 1014, 1015, 1016
 1665, 1666, 1667, 1668, 1669, 1670, 1671, 1672, 1681, 1682, 1683, 1684, 1685, 1686, 1687, 1688
 1697, 1698, 1699, 1700, 1701, 1702, 1703, 1704, 1713, 1714, 1715, 1716, 1717, 1718, 1719, 1720
 1729, 1730, 1731, 1732, 1733, 1734, 1735, 1736, 1745, 1746, 1747, 1748, 1749, 1750, 1751, 1752
 1761, 1762, 1763, 1764, 1765, 1766, 1767, 1768, 1777, 1778, 1779, 1780, 1781, 1782, 1783, 1784
 3329, 3330, 3331, 3332, 3333, 3334, 3335, 3336, 3345, 3346, 3347, 3348, 3349, 3350, 3351, 3352
 3361, 3362, 3363, 3364, 3365, 3366, 3367, 3368, 3377, 3378, 3379, 3380, 3381, 3382, 3383, 3384
 3393, 3394, 3395, 3396, 3397, 3398, 3399, 3400, 3409, 3410, 3411, 3412, 3413, 3414, 3415, 3416
 3425, 3426, 3427, 3428, 3429, 3430, 3431, 3432, 3441, 3442, 3443, 3444, 3445, 3446, 3447, 3448
*Elset, elset=_Surf-qiu_S4, internal, instance=Part-qiu-1
 1538, 1540, 1542, 1544, 1546, 1548, 1550, 1552, 1554, 1556, 1558, 1560, 1562, 1564, 1566, 1568
 1570, 1572, 1574, 1576, 1578, 1580, 1582, 1584, 1586, 1588, 1590, 1592, 1594, 1596, 1598, 1600
 1602, 1604, 1606, 1608, 1610, 1612, 1614, 1616, 1618, 1620, 1622, 1624, 1626, 1628, 1630, 1632
 1634, 1636, 1638, 1640, 1642, 1644, 1646, 1648, 1650, 1652, 1654, 1656, 1658, 1660, 1662, 1664
 3202, 3204, 3206, 3208, 3210, 3212, 3214, 3216, 3218, 3220, 3222, 3224, 3226, 3228, 3230, 3232
 3234, 3236, 3238, 3240, 3242, 3244, 3246, 3248, 3250, 3252, 3254, 3256, 3258, 3260, 3262, 3264
 3266, 3268, 3270, 3272, 3274, 3276, 3278, 3280, 3282, 3284, 3286, 3288, 3290, 3292, 3294, 3296
 3298, 3300, 3302, 3304, 3306, 3308, 3310, 3312, 3314, 3316, 3318, 3320, 3322, 3324, 3326, 3328
 3458, 3460, 3462, 3464, 3466, 3468, 3470, 3472, 3474, 3476, 3478, 3480, 3482, 3484, 3486, 3488
 3490, 3492, 3494, 3496, 3498, 3500, 3502, 3504, 3506, 3508, 3510, 3512, 3514, 3516, 3518, 3520
 3522, 3524, 3526, 3528, 3530, 3532, 3534, 3536, 3538, 3540, 3542, 3544, 3546, 3548, 3550, 3552
 3554, 3556, 3558, 3560, 3562, 3564, 3566, 3568, 3570, 3572, 3574, 3576, 3578, 3580, 3582, 3584
*Surface, type=ELEMENT, name=Surf-qiu
_Surf-qiu_S2, S2
_Surf-qiu_S3, S3
_Surf-qiu_S4, S4
*End Assembly
** 
** MATERIALS
** 
*Material, name=Material-1
*Density
 7.8e-09,
*Elastic
210000., 0.3
** 
** INTERACTION PROPERTIES
** 
*Surface Interaction, name=IntProp-1
*Friction
0.,
** 
** BOUNDARY CONDITIONS
** 
** Name: BC-Fix Type: Symmetry/Antisymmetry/Encastre
*Boundary
Set-Fix, ENCASTRE
** Name: BC-Symm Type: Symmetry/Antisymmetry/Encastre
*Boundary
Set-Symm, ZSYMM
** 
** PREDEFINED FIELDS
** 
** Name: Predefined Field-1   Type: Velocity
*Initial Conditions, type=VELOCITY
Set-qiu, 1, 600.
Set-qiu, 2, -2500.
Set-qiu, 3, 0.
** ----------------------------------------------------------------
** 
** STEP: Step-1
** 
*Step, name=Step-1, nlgeom=YES
*Dynamic, Explicit
, 0.0025
*Bulk Viscosity
0.06, 0.03
** 
** INTERACTIONS
** 
** Interaction: Int-1
*Contact Pair, interaction=IntProp-1, mechanical constraint=KINEMATIC, cpset=Int-1
Surf-qiu, Surf-ban
** 
** OUTPUT REQUESTS
** 
*Restart, write, number interval=1, time marks=NO
** 
** FIELD OUTPUT: F-Output-1
** 
*Output, field
*Node Output
A, AR, AT, CF, RF, RM, RT, U
UR, UT, V, VR, VT
*Element Output, directions=YES
BF, EVF, GRAV, HP, IWCONWEP, LE, NFORC, NFORCSO, P, PE, PEEQ, PEEQVAVG, PEVAVG, S, SBF, SF
STAGP, SVAVG, TRNOR, TRSHR, VP
*Contact Output
CSTRESS, 
** 
** HISTORY OUTPUT: H-Output-1
** 
*Output, history, variable=PRESELECT
*End Step
