$ NASTRAN input file created by the MSC MSC.Nastran input file
$ translator ( MSC.Patran 14.0.018 ) on October   15, 2007 at 20:31:07.
$ Direct Text Input for Nastran System Cell Section
$ Direct Text Input for File Management Section
$ Frequency Response Analysis, Direct Formulation, Database
SOL 108
$ Direct Text Input for Executive Control
CEND
TITLE = MSC.Nastran job created on 15-Oct-07 at 20:29:52
ECHO = NONE
LOADSET = 1
$ Direct Text Input for Global Case Control Data
SUBCASE 1
   TITLE=This is a default subcase.
   FREQUENCY = 1
   SPC = 2
   DLOAD = 2
   DISPLACEMENT(SORT1,REAL)=ALL
   SPCFORCES(SORT1,REAL)=ALL
$ Direct Text Input for this Subcase
BEGIN BULK
PARAM    POST    0
PARAM   COUPMASS 1
PARAM    G      .1
PARAM   PRTMAXIM YES
FREQ1    1      20.     20.      49
$ Direct Text Input for Bulk Data
$ Elements and Element Properties for region : solid
PSOLID   1       1       0
$ Pset: "solid" will be imported as: "psolid.1"
CHEXA    1       1       1       2       5       4       64      65
         68      67
CHEXA    2       1       2       3       6       5       65      66
         69      68
CHEXA    3       1       4       5       8       7       67      68
         71      70
CHEXA    4       1       5       6       9       8       68      69
         72      71
CHEXA    5       1       7       8       11      10      70      71
         74      73
CHEXA    6       1       8       9       12      11      71      72
         75      74
CHEXA    7       1       10      11      14      13      73      74
         77      76
CHEXA    8       1       11      12      15      14      74      75
         78      77
CHEXA    9       1       13      14      17      16      76      77
         80      79
CHEXA    10      1       14      15      18      17      77      78
         81      80
CHEXA    11      1       16      17      20      19      79      80
         83      82
CHEXA    12      1       17      18      21      20      80      81
         84      83
CHEXA    13      1       19      20      23      22      82      83
         86      85
CHEXA    14      1       20      21      24      23      83      84
         87      86
CHEXA    15      1       22      23      26      25      85      86
         89      88
CHEXA    16      1       23      24      27      26      86      87
         90      89
CHEXA    17      1       25      26      29      28      88      89
         92      91
CHEXA    18      1       26      27      30      29      89      90
         93      92
CHEXA    19      1       28      29      32      31      91      92
         95      94
CHEXA    20      1       29      30      33      32      92      93
         96      95
$ ... 120 like lines cut
$ Referenced Material Records
$ Material Record : elastic
$ Description of Material : Date: 15-Oct-07           Time: 20:28:51
MAT1     1      7.+10           .3      2800.
$ Nodes of the Entire Model
GRID     1               0.      0.      0.
GRID     2               0.      0.     .03
GRID     3               0.      0.     .06
GRID     4              .03      0.      0.
GRID     5              .03      0.     .03
GRID     6              .03      0.     .06
GRID     7              .06      0.      0.
GRID     8              .06      0.     .03
GRID     9              .06      0.     .06
GRID     10             .09      0.      0.
GRID     11             .09      0.     .03
GRID     12             .09      0.     .06
GRID     13             .12      0.      0.
GRID     14             .12      0.     .03
GRID     15             .12      0.     .06
GRID     16             .15      0.      0.
GRID     17             .15      0.     .03
GRID     18             .15      0.     .06
GRID     19             .18      0.      0.
GRID     20             .18      0.     .03
$ ... 169 like lines cut
$ Loads for Load Case : load1
SPCADD   2       1
RLOAD1   4       5                       1
LSEQ     1       5       3
DLOAD    2      1.      1.       4
$ Displacement Constraints of Load Set : spc
SPC1     1       123456  1       2       3       64      65      66
         127     128     129
$ Nodal Forces of Load Set : force
FORCE    3       188     0      1.       0.     -1.      0.
$ Referenced Dynamic Load Tables
$ Constant Load Table
TABLED1  1
         0.     1.      1000.   1.       ENDT
$ Referenced Coordinate Frames
ENDDATA 39fd41dc
