$ NASTRAN input file created by the MSC MSC.Nastran input file
$ translator ( MSC.Patran 14.0.018 ) on October   13, 2007 at 15:59:56.
$ Direct Text Input for Nastran System Cell Section
$ Direct Text Input for File Management Section
$ Buckling Analysis, Database
SOL 105
$ Direct Text Input for Executive Control
CEND
TITLE = MSC.Nastran job created on 13-Oct-07 at 15:59:39
ECHO = NONE
$ Direct Text Input for Global Case Control Data
SUBCASE 1
$ Subcase name : Default
   SUBTITLE=Default
   SPC = 2
   LOAD = 2
   DISPLACEMENT(SORT1,REAL)=ALL
   SPCFORCES(SORT1,REAL)=ALL
SUBCASE 2
$ Subcase name : Default
   SUBTITLE=Default
   SPC = 2
   METHOD = 1
   VECTOR(SORT1,REAL)=ALL
   SPCFORCES(SORT1,REAL)=ALL
BEGIN BULK
PARAM    POST    0
PARAM   PRTMAXIM YES
EIGRL    1                       4       0
$ Direct Text Input for Bulk Data
$ Elements and Element Properties for region : shell
PSHELL   1       1      6.35     1               1
$ Pset: "shell" will be imported as: "pshell.1"
CQUAD4   1       1       1       2       67      66
CQUAD4   2       1       2       3       68      67
CQUAD4   3       1       3       4       69      68
CQUAD4   4       1       4       5       70      69
CQUAD4   5       1       5       6       71      70
CQUAD4   6       1       6       7       72      71
CQUAD4   7       1       7       8       73      72
CQUAD4   8       1       8       9       74      73
CQUAD4   9       1       9       10      75      74
CQUAD4   10      1       10      11      76      75
CQUAD4   11      1       11      12      77      76
CQUAD4   12      1       12      13      78      77
CQUAD4   13      1       13      14      79      78
CQUAD4   14      1       14      15      80      79
CQUAD4   15      1       15      16      81      80
CQUAD4   16      1       16      17      82      81
CQUAD4   17      1       17      18      83      82
CQUAD4   18      1       18      19      84      83
CQUAD4   19      1       19      20      85      84
CQUAD4   20      1       20      21      86      85
$ ... 2540 like lines cut
$ Referenced Material Records
$ Material Record : elastic
$ Description of Material : Date: 13-Oct-07           Time: 15:58:55
MAT1     1      200000.         .3
$ Nodes of the Entire Model
GRID     1              2540.    0.      0.
GRID     2              2527.77 248.939  0.
GRID     3              2491.2  495.503  0.
GRID     4              2430.63 737.308  0.
GRID     5              2346.65 972.018  0.
GRID     6              2240.07 1197.37  0.
GRID     7              2111.92 1411.17  0.
GRID     8              1963.43 1611.38  0.
GRID     9              1796.05 1796.05  0.
GRID     10             1611.38 1963.43  0.
GRID     11             1411.17 2111.92  0.
GRID     12             1197.36 2240.07  0.
GRID     13             972.011 2346.66  0.
GRID     14             737.301 2430.64  0.
GRID     15             495.497 2491.2   0.
GRID     16             248.936 2527.77  0.
GRID     17             -.0016272540.    0.
GRID     18             -248.9432527.77  0.
GRID     19             -495.5082491.2   0.
GRID     20             -737.3132430.63  0.
$ ... 2604 like lines cut
$ Loads for Load Case : Default
SPCADD   2       1       3
LOAD     2      1.      1.       1
$ Displacement Constraints of Load Set : bottom
SPC1     1       345     1       THRU    64
$ Displacement Constraints of Load Set : top
SPC1     3       12      2601    THRU    2664
$ Pressures of Distributed Load Set : load1
FORCE    1       2601           1246.2   0.      0.     -1.
FORCE    1       2602           1246.2   0.      0.     -1.
FORCE    1       2602           1246.3   0.      0.     -1.
FORCE    1       2603           1246.3   0.      0.     -1.
FORCE    1       2603           1246.38  0.      0.     -1.
FORCE    1       2604           1246.38  0.      0.     -1.
FORCE    1       2604           1246.41  0.      0.     -1.
FORCE    1       2605           1246.41  0.      0.     -1.
FORCE    1       2605           1246.41  0.      0.     -1.
FORCE    1       2606           1246.41  0.      0.     -1.
FORCE    1       2606           1246.37  0.      0.     -1.
FORCE    1       2607           1246.37  0.      0.     -1.
FORCE    1       2607           1246.3   0.      0.     -1.
FORCE    1       2608           1246.3   0.      0.     -1.
FORCE    1       2608           1246.19  0.      0.     -1.
FORCE    1       2609           1246.19  0.      0.     -1.
FORCE    1       2609           1246.2   0.      0.     -1.
FORCE    1       2610           1246.2   0.      0.     -1.
FORCE    1       2610           1246.31  0.      0.     -1.
FORCE    1       2611           1246.31  0.      0.     -1.
$ ... 108 like lines cut
$ Force or value sum: 159528.824219
$ Referenced Coordinate Frames
ENDDATA dfe619c2
