$ NASTRAN input file created by the Patran 2010 input file translator on
$  June      15, 2011 at 10:56:56.
$ Direct Text Input for Nastran System Cell Section
$ Direct Text Input for File Management Section
$ Direct Text Input for Executive Control
$ Complex Eigenvalue Analysis, Direct Formulation, Database
SOL 600,NLSTATIC STOP=1
CEND
$ Direct Text Input for Global Case Control Data
TITLE = MSC.Nastran job created on 15-Jun-11 at 10:51:05
SUBCASE 1
$ Subcase name : Default
   SUBTITLE=Default
   NLPARM = 1
   BCONTACT = ALLBODY
   SPC = 2
   LOAD = 1
BEGIN BULK
$ Direct Text Input for Bulk Data
PARAM   PRTMAXIM YES
PARAM   MRNOECHO 123
BCPARA   0       NBODIES 2       MAXENT  2500    MAXNOD  162
PARAM   MARCSLHT 7
NLPARM   1                       AUTO    1       25      P       YES
$ Elements and Element Properties for region : Solidp
PSOLID   1       1       0
$ Pset: "Solidp" will be imported as: "psolid.1"
CHEXA    1       1       1       2       11      10      46      47
         56      55
CHEXA    2       1       2       3       12      11      47      48
         57      56
CHEXA    3       1       3       4       13      12      48      49
         58      57
CHEXA    4       1       4       5       14      13      49      50
         59      58
CHEXA    5       1       5       6       15      14      50      51
         60      59
CHEXA    6       1       6       7       16      15      51      52
         61      60
CHEXA    7       1       7       8       17      16      52      53
         62      61
CHEXA    8       1       8       9       18      17      53      54
         63      62
CHEXA    9       1       10      11      20      19      55      56
         65      64
CHEXA    10      1       11      12      21      20      56      57
         66      65
CHEXA    11      1       12      13      22      21      57      58
         67      66
CHEXA    12      1       13      14      23      22      58      59
         68      67
CHEXA    13      1       14      15      24      23      59      60
         69      68
CHEXA    14      1       15      16      25      24      60      61
         70      69
CHEXA    15      1       16      17      26      25      61      62
         71      70
CHEXA    16      1       17      18      27      26      62      63
         72      71
CHEXA    17      1       19      20      29      28      64      65
         74      73
CHEXA    18      1       20      21      30      29      65      66
         75      74
CHEXA    19      1       21      22      31      30      66      67
         76      75
CHEXA    20      1       22      23      32      31      67      68
         77      76
$ ... 216 like lines cut
$ Referenced Material Records
$ Material Record : block
$ Description of Material : Date: 15-Jun-11           Time: 10:39:41
MATEP    1       Perfect35000.                   Isotrop Addmean
MAT1     1      1.75+7          .3
$ Nodes of the Entire Model
GRID     1               0.      0.      0.
GRID     2              2.5      0.      0.
GRID     3              5.       0.      0.
GRID     4              7.5      0.      0.
GRID     5              10.      0.      0.
GRID     6              12.5     0.      0.
GRID     7              15.      0.      0.
GRID     8              17.5     0.      0.
GRID     9              20.      0.      0.
GRID     10              0.     2.5      0.
GRID     11             2.5     2.5      0.
GRID     12             5.      2.5      0.
GRID     13             7.5     2.5      0.
GRID     14             10.     2.5      0.
GRID     15             12.5    2.5      0.
GRID     16             15.     2.5      0.
GRID     17             17.5    2.5      0.
GRID     18             20.     2.5      0.
GRID     19              0.     5.       0.
GRID     20             2.5     5.       0.
$ ... 208 like lines cut
$ Loads for Load Case : Default
SPCADD   2       1       3       4       5       6
$ Enforced Displacements for Load Set : trans_control1
$ Dummy Force Required to Activate the Following Enforced Displacements
FORCE    1       226             0.     .57735  .57735  .57735
SPCD     1       226     1      5.       226     3      -12.5
$ Enforced Displacements for Load Set : rot_control2
$ Dummy Force Required to Activate the Following Enforced Displacements
FORCE    1       228             0.     .57735  .57735  .57735
SPCD     1       228     2      .5
$ Displacement Constraints of Load Set : fixed
SPC1     1       123     1       THRU    45
$ Displacement Constraints of Load Set : trans_control1
SPC1     3       123     226
$ Displacement Constraints of Load Set : trans_control2
SPC1     4       123     226
$ Displacement Constraints of Load Set : rot_control1
SPC1     5       123     228
$ Displacement Constraints of Load Set : rot_control2
SPC1     6       123     228
$ Deform Body Contact LBC set: workpiece
BCBODY   1       3D      DEFORM  6       0
BSURF    6       1       2       3       4       5       6       7
         8       9       10      11      12      13      14      15
         16      17      18      19      20      21      22      23
         24      25      26      27      28      29      30      31
         32      33      34      35      36      37      38      39
         40      41      42      43      44      45      46      47
         48      49      50      51      52      53      54      55
         56      57      58      59      60      61      62      63
         64      65      66      67      68      69      70      71
         72      73      74      75      76      77      78      79
         80      81      82      83      84      85      86      87
         88      89      90      91      92      93      94      95
         96      97      98      99      100     101     102     103
         104     105     106     107     108     109     110     111
         112     113     114     115     116     117     118     119
         120     121     122     123     124     125     126     127
         128
$ Rigid Body Contact LBC set: punch
BCBODY   2       3D      RIGID           0               1       226
         228     0.      0.     1.       0.      0.      0.      0.
        RIGID   226     1       PUNCH
         NURBS   -7      2       4       2       50      50      0
                20.     -4.     22.     20.     -4.     42.
                -1.33-15-4.     42.      0.     -4.     22.
                2.665-15-4.     2.      20.     -4.     2.
                20.     -4.     22.     20.     14.     22.
                20.     14.     42.     -1.33-1514.     42.
                 0.     14.     22.     2.665-1514.     2.
                20.     14.     2.      20.     14.     22.
                1.      .333333 .333333 1.      .333333 .333333 1.
                1.      .333333 .333333 1.      .333333 .333333 1.
                 0.      0.      0.      0.     .5      .5      .5
                1.      1.      1.      1.       0.      0.     1.
                1.
$ Referenced Coordinate Frames
ENDDATA fc666361
