$ NASTRAN input file created by the MSC MSC.Nastran input file
$ translator ( MSC.Patran 13.1.089 ) on November  23, 2007 at 16:52:28.
$ Direct Text Input for Nastran System Cell Section
$ Direct Text Input for File Management Section
$ Linear Transient Response Analysis, Direct Formulation, Database
SOL 109
$ Direct Text Input for Executive Control
CEND
TITLE = MSC.Nastran job created on 23-Nov-07 at 16:51:17
ECHO = NONE
LOADSET = 1
$ Direct Text Input for Global Case Control Data
SUBCASE 1
$ Subcase name : load1
   SUBTITLE=load1
   TSTEP = 1
   SPC = 2
   DLOAD = 2
   DISPLACEMENT(SORT2,REAL)=ALL
   SPCFORCES(SORT2,REAL)=ALL
$ Direct Text Input for this Subcase
BEGIN BULK
PARAM    POST    0
PARAM   COUPMASS 1
PARAM    G      .1
PARAM    W3     1571.
PARAM   PRTMAXIM YES
TSTEP    1       200    4.-4
$ Direct Text Input for Bulk Data
$ Elements and Element Properties for region : shell
PSHELL   1       1      1.5      1               1
$ Pset: "shell" will be imported as: "pshell.1"
CQUAD4   1       1       185     182     183     184
CQUAD4   2       1       59      181     182     185
CQUAD4   3       1       85      180     181     59
CQUAD4   4       1       58      179     180     85
CQUAD4   5       1       84      178     179     58
CQUAD4   6       1       57      177     178     84
CQUAD4   7       1       61      176     177     57
CQUAD4   8       1       86      175     176     61
CQUAD4   9       1       214     174     175     86
CQUAD4   10      1       159     210     209     158
CQUAD4   11      1       160     211     210     159
CQUAD4   12      1       157     208     166     156
CQUAD4   13      1       156     166     167     155
CQUAD4   14      1       164     165     212     161
CQUAD4   15      1       155     167     168     154
CQUAD4   16      1       154     168     169     153
CQUAD4   17      1       153     169     184     183
CQUAD4   18      1       152     149     150     151
CQUAD4   19      1       126     122     118     123
CQUAD4   20      1       122     121     117     118
$ ... 866 like lines cut
CTRIA3   887     1       126     125     124
CTRIA3   888     1       47      82      67
CTRIA3   889     1       10      28      8
CTRIA3   890     1       87      115     34
CTRIA3   891     1       76      94      31
CTRIA3   892     1       251     220     129
CTRIA3   893     1       264     263     220
CTRIA3   894     1       280     95      294
CTRIA3   895     1       270     294     277
CTRIA3   896     1       162     164     161
CTRIA3   897     1       332     334     333
CTRIA3   898     1       399     401     400
CTRIA3   899     1       475     62      65
CTRIA3   900     1       81      60      471
CTRIA3   901     1       82      69      478
CTRIA3   902     1       475     474     480
CTRIA3   903     1       205     204     285
CTRIA3   904     1       75      192     486
CTRIA3   905     1       483     476     484
CTRIA3   906     1       315     314     187
$ ... 30 like lines cut
$ Referenced Material Records
$ Material Record : elastic
$ Description of Material : Date: 24-Jul-07           Time: 19:13:24
MAT1     1      150000.         .3      2.7-9
$ Nodes of the Entire Model
GRID     1              2092.62 414.357 2496.13
GRID     2              2116.14 446.028 2365.07
GRID     3              2117.4  462.449 2385.17
GRID     4              2111.67 469.03  2384.05
GRID     5              2132.71 439.957 2402.82
GRID     6              2128.02 448.816 2394.38
GRID     7              2131.38 439.957 2429.81
GRID     8              2123.01 439.454 2453.55
GRID     9              2104.68 456.666 2358.67
GRID     10             2127.89 438.403 2455.06
GRID     11             2125.98 439.957 2378.26
GRID     12             2111.94 439.319 2355.46
GRID     13             2121.13 422.187 2464.03
GRID     14             2075.61 420.674 2318.38
GRID     15             2124.73 458.227 2403.06
GRID     16             2120.04 453.611 2378.45
GRID     17             2123.75 457.079 2394.13
GRID     18             2122.12 455.473 2385.82
GRID     19             2118.53 464.848 2393.67
GRID     20             2125.99 448.018 2386.08
$ ... 902 like lines cut
$ Loads for Load Case : load1
SPCADD   2       1
TLOAD1   4       5                       1
LSEQ     1       5       3
DLOAD    2      1.      1.       4
$ Displacement Constraints of Load Set : spc
SPC1     1       123456  463     THRU    470
SPC1     1       123456  502     503     504     505     556     640
         813     855
$ Nodal Forces of Load Set : force
FORCE    3       316     0      1000.   1.       0.      0.
$ Referenced Dynamic Load Tables
$ Dynamic Load Table : f1
TABLED1  1
*       -.004            0.              0.              0.
*       8.08081-5       .126593         1.61616-4       .251148
*       2.42424-4       .371663         3.23232-4       .486197
*       4.0404-4        .592908         4.84849-4       .690079
*       5.65657-4       .776147         6.46465-4       .849726
*       7.27273-4       .909632         8.08081-4       .954902
*       8.88889-4       .984808         9.69697-4       .998867
*       .00105051       .996855         .00113131       .978802
*       .00121212       .945001         .00129293       .895994
*       .00137374       .83257          .00145455       .75575
*       .00153535       .666769         .00161616       .56706
*       .00169697       .458227         .00177778       .34202
*       .00185859       .220311         .00193939       .0950563
*       .0020202        -.0317278       .00210101       -.158001
*       .00218182       -.281732        .00226263       -.40093
*       .00234343       -.513677        .00242424       -.618159
*       .00250505       -.712694        .00258586       -.795762
*       .00266667       -.866025        .00274747       -.922354
*       .00282828       -.963842        .00290909       -.989821
*       .0029899        -.999874        .00307071       -.993839
$ ... 31 like lines cut
*       .044             0.              ENDT
$ Referenced Coordinate Frames
ENDDATA b4a4b9d1
