$ NASTRAN input file created by the Patran 2010 (MD Enabled) input file
$ translator on June      08, 2011 at 14:39:43.
$ Direct Text Input for Nastran System Cell Section
$ Direct Text Input for File Management Section
$ Direct Text Input for Executive Control
$ Linear Static Analysis, Database
SOL 101
CEND
$ Direct Text Input for Global Case Control Data
TITLE = MD Nastran job created on 08-Jun-11 at 14:38:42
ECHO = NONE
SUBCASE 1
   TITLE=This is a default subcase.
   SPC = 2
   LOAD = 2
   DISPLACEMENT(SORT1,REAL)=ALL
   SPCFORCES(SORT1,REAL)=ALL
   STRESS(SORT1,REAL,VONMISES,BILIN)=ALL
$ Direct Text Input for this Subcase
BEGIN BULK
$ Direct Text Input for Bulk Data
PARAM    POST    0
PARAM   PRTMAXIM YES
$ Elements and Element Properties for region : Plate
PSHELL   1       1      .1       1               1
$ Pset: "Plate" will be imported as: "pshell.1"
CQUAD4   1       1       1       2       18      17
CQUAD4   2       1       2       3       19      18
CQUAD4   3       1       3       4       20      19
CQUAD4   4       1       4       5       21      20
CQUAD4   5       1       5       6       22      21
CQUAD4   6       1       6       7       23      22
CQUAD4   7       1       7       8       24      23
CQUAD4   8       1       8       9       25      24
CQUAD4   9       1       9       10      26      25
CQUAD4   10      1       10      11      27      26
CQUAD4   11      1       11      12      28      27
CQUAD4   12      1       12      13      29      28
CQUAD4   13      1       13      14      30      29
CQUAD4   14      1       14      15      31      30
CQUAD4   15      1       15      16      32      31
CQUAD4   16      1       17      18      34      33
CQUAD4   17      1       18      19      35      34
CQUAD4   18      1       19      20      36      35
CQUAD4   19      1       20      21      37      36
CQUAD4   20      1       21      22      38      37
$ ... 25 like lines cut
$ Referenced Material Records
$ Material Record : A1
$ Description of Material : Date: 08-Jun-11           Time: 14:36:49
MAT1     1      1.+7            .3
$ Nodes of the Entire Model
GRID     1               0.      0.      0.
GRID     2              .333333  0.      0.
GRID     3              .666667  0.      0.
GRID     4              1.       0.      0.
GRID     5              1.33333  0.      0.
GRID     6              1.66667  0.      0.
GRID     7              2.       0.      0.
GRID     8              2.33333  0.      0.
GRID     9              2.66667  0.      0.
GRID     10             3.       0.      0.
GRID     11             3.33333  0.      0.
GRID     12             3.66667  0.      0.
GRID     13             4.       0.      0.
GRID     14             4.33333  0.      0.
GRID     15             4.66667  0.      0.
GRID     16             5.       0.      0.
GRID     17              0.     .333333  0.
GRID     18             .333333 .333333  0.
GRID     19             .666667 .333333  0.
GRID     20             1.      .333333  0.
$ ... 44 like lines cut
$ Loads for Load Case : Default
SPCADD   2       1
LOAD     2      1.      1.       1
$ Displacement Constraints of Load Set : Dis
SPC1     1       123456  1       17      33      49
$ Nodal Forces of Load Set : Force
FORCE    1       16      0      8.       0.      0.     -1.
$ Referenced Coordinate Frames
ENDDATA 217d334a
