$ NASTRAN input file created by the MSC MSC.Nastran input file
$ translator ( MSC.Patran 14.0.018 ) on October   15, 2007 at 10:49:34.
$ Direct Text Input for Nastran System Cell Section
$ Direct Text Input for File Management Section
$ Nonlinear Static Analysis, Database
SOL 106
$ Direct Text Input for Executive Control
CEND
TITLE = MSC.Nastran job created on 15-Oct-07 at 10:47:07
ECHO = NONE
$ Direct Text Input for Global Case Control Data
SUBCASE 1
   NLPARM = 1
   METHOD = 1
   SPC = 2
   LOAD = 2
   VECTOR(SORT1,REAL)=ALL
   SPCFORCES(SORT1,REAL)=ALL
$ Direct Text Input for this Subcase
BEGIN BULK
PARAM    POST    0
PARAM    AUTOSPC NO
PARAM    WTMASS .00259
PARAM    LGDISP  1
PARAM   PRTMAXIM YES
NLPARM   1       10              AUTO    5       25              NO
PARAM    NMLOOP  1
EIGRL    1                       10      0                       MASS
$ Direct Text Input for Bulk Data
$ Elements and Element Properties for region : shell
PSHELL   1       1      .01625   1               1
$ Pset: "shell" will be imported as: "pshell.1"
CQUAD4   1       1       1       2       13      12
CQUAD4   2       1       2       3       14      13
CQUAD4   3       1       3       4       15      14
CQUAD4   4       1       4       5       16      15
CQUAD4   5       1       5       6       17      16
CQUAD4   6       1       6       7       18      17
CQUAD4   7       1       7       8       19      18
CQUAD4   8       1       8       9       20      19
CQUAD4   9       1       9       10      21      20
CQUAD4   10      1       10      11      22      21
CQUAD4   11      1       12      13      24      23
CQUAD4   12      1       13      14      25      24
CQUAD4   13      1       14      15      26      25
CQUAD4   14      1       15      16      27      26
CQUAD4   15      1       16      17      28      27
CQUAD4   16      1       17      18      29      28
CQUAD4   17      1       18      19      30      29
CQUAD4   18      1       19      20      31      30
CQUAD4   19      1       20      21      32      31
CQUAD4   20      1       21      22      33      32
$ ... 80 like lines cut
$ Referenced Material Records
$ Material Record : mat1
$ Description of Material : Date: 15-Oct-07           Time: 10:43:10
MAT1     1      1.+7            .3      .101
$ Nodes of the Entire Model
GRID     1               0.      0.      0.
GRID     2              .1       0.      0.
GRID     3              .2       0.      0.
GRID     4              .3       0.      0.
GRID     5              .4       0.      0.
GRID     6              .5       0.      0.
GRID     7              .6       0.      0.
GRID     8              .7       0.      0.
GRID     9              .8       0.      0.
GRID     10             .9       0.      0.
GRID     11             1.       0.      0.
GRID     12              0.     .1       0.
GRID     13             .1      .1       0.
GRID     14             .2      .1       0.
GRID     15             .3      .1       0.
GRID     16             .4      .1       0.
GRID     17             .5      .1       0.
GRID     18             .6      .1       0.
GRID     19             .7      .1       0.
GRID     20             .8      .1       0.
$ ... 101 like lines cut
$ Loads for Load Case : Default
SPCADD   2       1       3
LOAD     2      1.      1.       1      1.       3
$ Displacement Constraints of Load Set : bottom
SPC1     1       234     1       THRU    11
$ Displacement Constraints of Load Set : left
SPC1     3       135     1       12      23      34      45      56
         67      78      89      100     111
$ Pressures of Total Load Set : right
PLOAD4   1       10     10000.
                1.       0.      0.
PLOAD4   1       20     10000.
                1.       0.      0.
PLOAD4   1       30     10000.
                1.       0.      0.
PLOAD4   1       40     10000.
                1.       0.      0.
PLOAD4   1       50     10000.
                1.       0.      0.
PLOAD4   1       60     10000.
                1.       0.      0.
PLOAD4   1       70     10000.
                1.       0.      0.
PLOAD4   1       80     10000.
                1.       0.      0.
PLOAD4   1       90     10000.
                1.       0.      0.
PLOAD4   1       100    10000.
                1.       0.      0.
$ Pressures of Total Load Set : top
PLOAD4   3       91     10000.                           THRU    100
                 0.     1.       0.
$ Referenced Coordinate Frames
ENDDATA 431aa277
