$ NASTRAN input file created by the MSC MSC.Nastran input file
$ translator ( MSC.Patran 14.0.018 ) on October   16, 2007 at 16:15:02.
$ Direct Text Input for Nastran System Cell Section
$ Direct Text Input for File Management Section
$ Frequency Response Analysis, Modal Formulation, Database
SOL 111
$ Direct Text Input for Executive Control
CEND
TITLE = MSC.Nastran job created on 16-Oct-07 at 16:12:11
ECHO = NONE
LOADSET = 1
$ Direct Text Input for Global Case Control Data
SDAMPING = 1
SUBCASE 1
   TITLE=This is a default subcase.
   METHOD = 1
   FREQUENCY = 1
   SPC = 2
   DLOAD = 2
   DISPLACEMENT(SORT1,REAL)=ALL
   SPCFORCES(SORT1,REAL)=ALL
$ Direct Text Input for this Subcase
BEGIN BULK
PARAM    POST    0
PARAM   COUPMASS 1
PARAM    WTMASS .00259
PARAM   PRTMAXIM YES
FREQ1    1      10.     9.9      100
FREQ4    1      10.     100.    .03      100
TABDMP1  1       CRIT
        10.     .03     100.    .03      ENDT
EIGRL    1                       10      0
$ Direct Text Input for Bulk Data
$ Elements and Element Properties for region : shell
PSHELL   1       1      .01      1               1
$ Pset: "shell" will be imported as: "pshell.1"
CQUAD4   1       1       1       2       19      18
CQUAD4   2       1       2       3       20      19
CQUAD4   3       1       3       4       21      20
CQUAD4   4       1       4       5       22      21
CQUAD4   5       1       5       6       23      22
CQUAD4   6       1       6       7       24      23
CQUAD4   7       1       7       8       25      24
CQUAD4   8       1       8       9       26      25
CQUAD4   9       1       9       10      27      26
CQUAD4   10      1       10      11      28      27
CQUAD4   11      1       11      12      29      28
CQUAD4   12      1       12      13      30      29
CQUAD4   13      1       13      14      31      30
CQUAD4   14      1       14      15      32      31
CQUAD4   15      1       15      16      33      32
CQUAD4   16      1       16      17      34      33
CQUAD4   17      1       18      19      36      35
CQUAD4   18      1       19      20      37      36
CQUAD4   19      1       20      21      38      37
CQUAD4   20      1       21      22      39      38
$ ... 44 like lines cut
$ Elements and Element Properties for region : mass
CONM2    65      9999           1.+8
$ Referenced Material Records
$ Material Record : mat1
$ Description of Material : Date: 16-Oct-07           Time: 16:07:49
MAT1     1      2.+11           .3      7800.
$ Multipoint Constraints of the Entire Model
$ ID conflict : the PATRAN MPC ID was 1
RBE2     66      9999    12345   1       18      35      52      69
$ Nodes of the Entire Model
GRID     1               0.      0.      0.
GRID     2              .03125   0.      0.
GRID     3              .0625    0.      0.
GRID     4              .09375   0.      0.
GRID     5              .125     0.      0.
GRID     6              .15625   0.      0.
GRID     7              .1875    0.      0.
GRID     8              .21875   0.      0.
GRID     9              .25      0.      0.
GRID     10             .28125   0.      0.
GRID     11             .3125    0.      0.
GRID     12             .34375   0.      0.
GRID     13             .375     0.      0.
GRID     14             .40625   0.      0.
GRID     15             .4375    0.      0.
GRID     16             .46875   0.      0.
GRID     17             .5       0.      0.
GRID     18              0.     .025     0.
GRID     19             .03125  .025     0.
GRID     20             .0625   .025     0.
$ ... 66 like lines cut
$ Loads for Load Case : random
SPCADD   2       1
RLOAD1   4       5                       1
LSEQ     1       5       3
DLOAD    2      1.      1.       4
$ Displacement Constraints of Load Set : disp
SPC1     1       12456   9999
$ Nodal Forces of Load Set : force
FORCE    3       9999    0      1.+8     0.      0.     1.
$ Referenced Dynamic Load Tables
$ Dynamic Load Table : f1
TABLED1  1
        1.      1.      1000.   1.       ENDT
$ Referenced Coordinate Frames
ENDDATA d90d716a
