*Heading
** Job name: Job-luoxuanjiang Model name: Model-1
** Generated by: Abaqus/CAE 2016
*Preprint, echo=NO, model=NO, history=NO, contact=NO
**
** PARTS
**
*Part, name=Part-yepian
*Node
      1, -0.707106769,  0.707106769,           0.
      2,          -1.,           0.,           0.
      3, -0.707106769, -0.707106769,           0.
      4,           0.,          -1.,           0.
      5,  0.707106769, -0.707106769,           0.
      6,           1.,           0.,           0.
      7,  0.707106769,  0.707106769,           0.
      8,           0.,           1.,           0.
      9,  -2.97140455,   24.6653862,           0.
     10,  -3.59599257,   24.1294403,           0.
     11,  -3.95187187,    23.387352,           0.
     12,  -2.18387389,   24.9044304,           0.
     13,  -3.97877955,   22.5647812,           0.
     14,  -3.63316417,   20.6046982,           0.
     15,  -3.28754878,   18.6446152,           0.
     16,   -2.7691257,   15.7044916,           0.
     17,  -2.42351031,   13.7444096,           0.
     18,  -2.07789493,   11.7843275,           0.
     19,  -1.73227942,    9.8242445,           0.
     20,  -1.21385634,   6.88412094,           0.
** ... 557 like lines cut
*Element, type=S4R
  1, 364, 123, 494, 417
  2, 165, 123, 247,  21
  3, 494,  22, 166, 258
  4, 494, 258, 414, 417
  5, 254, 368, 373, 252
  6, 167, 254, 252,  23
  7, 288, 491, 301, 290
  8, 189, 293, 287,  46
  9, 132, 562, 289, 505
 10, 269,  44, 185, 137
 11, 183, 141, 268,  43
 12, 509, 439, 262, 508
 13, 408, 441, 361, 355
 14, 499,  37, 180, 361
 15, 408, 355, 142, 460
 16,  38, 355, 361, 180
 17,   6,   5, 239,  96
 18, 363, 239, 416, 105
 19, 443, 105, 244, 389
 20, 490, 337, 198, 199
** ... 470 like lines cut
*Nset, nset=Set-1, generate
   1,  577,    1
*Elset, elset=Set-1, generate
   1,  490,    1
** Section: Section-pian
*Shell Section, elset=Set-1, material=Material-1
0.5, 5
*End Part
**  
*Part, name=Part-zhou
*Node
      1,  0.831469595,  0.555570245,           0.
      2,  0.555570245,  0.831469595,           0.
      3,           0.,           1.,           0.
      4, -0.555570245,  0.831469595,           0.
      5, -0.831469595,  0.555570245,           0.
      6,          -1.,           0.,           0.
      7, -0.831469595, -0.555570245,           0.
      8, -0.555570245, -0.831469595,           0.
      9,           0.,          -1.,           0.
     10,  0.555570245, -0.831469595,           0.
     11,  0.831469595, -0.555570245,           0.
     12,           1.,           0.,           0.
     13,  0.980785251,  0.195090324,           0.
     14,  0.923879504,  0.382683426,           0.
     15,  0.707106769,  0.707106769,           0.
     16,  0.382683426,  0.923879504,           0.
     17,  0.195090324,  0.980785251,           0.
     18, -0.195090324,  0.980785251,           0.
     19, -0.382683426,  0.923879504,           0.
     20, -0.707106769,  0.707106769,           0.
** ... 17494 like lines cut
*Element, type=C3D8R
    1,   169,   149,   194,   251,    30,    10,    55,   112
    2,   250,   193,   167,   148,   111,    54,    28,     9
    3,   147,   164,   173,   190,     8,    25,    34,    51
    4,   209,   263,   197,   265,    70,   124,    58,   126
    5,   174,   187,   145,   161,    35,    48,     6,    22
    6,   159,   143,   184,   206,    20,     4,    45,    67
    7,   259,   175,   183,   233,   120,    36,    44,    94
    8,   257,   186,   185,   212,   118,    47,    46,    73
    9,   179,   262,   202,   176,    40,   123,    63,    37
   10,   177,   153,   152,   178,    38,    14,    13,    39
   11,   205,   209,   216,   178,    66,    70,    77,    39
   12,   198,   213,   237,   255,    59,    74,    98,   116
   13,   140,   153,   177,   179,     1,    14,    38,    40
   14,   141,   154,   176,   180,     2,    15,    37,    41
   15,   272,   219,   273,   221,   133,    80,   134,    82
   16,   155,   141,   180,   181,    16,     2,    41,    42
   17,   156,   155,   181,   182,    17,    16,    42,    43
   18,   175,   249,   158,   157,    36,   110,    19,    18
   19,   249,   184,   143,   158,   110,    45,     4,    19
   20,   269,   212,   258,   215,   130,    73,   119,    76
** ... 15230 like lines cut
*Nset, nset=Set-1, generate
     1,  17514,      1
*Elset, elset=Set-1, generate
     1,  15250,      1
** Section: Section-zhou
*Solid Section, elset=Set-1, material=Material-1
,
*End Part
**  
**
** ASSEMBLY
**
*Assembly, name=Assembly
**  
*Instance, name=Part-yepian-1, part=Part-yepian
*End Instance
**  
*Instance, name=Part-zhou-1, part=Part-zhou
*End Instance
**  
*Node
      1,           0.,           0.,           0.
*Node
      2,           0.,          25.,           0.
*Node
      3,           0.,           0.,          25.
*Element, type=CONN3D2
1, 1, 3
*Connector Section, elset=Wire-1-Set-1
Beam,
"Datum csys-Hinge",
*Nset, nset=Set-RP-gan
 3,
*Nset, nset=Set-RP-yepian-Top
 2,
*Nset, nset=Set-gan, instance=Part-zhou-1, generate
     1,  17514,      1
*Elset, elset=Set-gan, instance=Part-zhou-1, generate
     1,  15250,      1
*Nset, nset=Set-yepian, instance=Part-yepian-1, generate
   1,  577,    1
*Elset, elset=Set-yepian, instance=Part-yepian-1, generate
   1,  490,    1
*Nset, nset=Set-yepian-center
 1,
*Nset, nset=Wire-1-Set-1
 1, 3
*Elset, elset=Wire-1-Set-1
 1,
*Orientation, name="Datum csys-Hinge"
          0.,           0.,           1.,           0.,           1.,           0.
1, 0.
** Constraint: Constraint-yepian
*Rigid Body, ref node=Set-RP-yepian-Top, elset=Set-yepian, tie nset=Set-yepian-center
** Constraint: Constraint-zhou
*Rigid Body, ref node=Set-RP-gan, elset=Set-gan
*End Assembly
** 
** MATERIALS
** 
*Material, name=Material-1
*Elastic
210000., 0.3
** 
** BOUNDARY CONDITIONS
** 
** Name: BC-gan Type: Symmetry/Antisymmetry/Encastre
*Boundary
Set-RP-gan, ENCASTRE
** ----------------------------------------------------------------
** 
** STEP: Step-1
** 
*Step, name=Step-1, nlgeom=YES
*Static
0.1, 1., 1e-06, 0.1
** 
** BOUNDARY CONDITIONS
** 
** Name: BC-pian Type: Displacement/Rotation
*Boundary
Set-RP-yepian-Top, 1, 1, 1.
** 
** OUTPUT REQUESTS
** 
*Restart, write, frequency=0
** 
** FIELD OUTPUT: F-Output-1
** 
*Output, field, variable=PRESELECT
** 
** HISTORY OUTPUT: H-Output-1
** 
*Output, history
*Node Output, nset=Wire-1-Set-1
U1, U2, U3, UR1, UR2, UR3
*Element Output, elset=Wire-1-Set-1
CTF1, CTF2, CTF3, CTM1, CTM2, CTM3, CU1, CU2, CU3, CUR1, CUR2, CUR3
*End Step
