*Heading
** Job name: Job-zhijia Model name: Model-1
** Generated by: Abaqus/CAE 2016
*Preprint, echo=NO, model=NO, history=NO, contact=NO
**
** PARTS
**
*Part, name=Part-zhijia
*Node
      1,           0.,         3.75,           0.
      2,          15.,         3.75,           0.
      3,        11.25,           0.,           0.
      4,          7.5,        -3.75,           0.
      5,          7.5,         -25.,           0.
      6,           0.,         -25.,           0.
      7,          15.,         3.75,          10.
      8,           0.,         3.75,          10.
      9,           0.,         -25.,          10.
     10,          7.5,         -25.,          10.
     11,          7.5,        -3.75,          10.
     12,        11.25,           0.,          10.
     13,           0.,          10.,           0.
     14,         6.25,          10.,           0.
     15,          10.,        13.75,           0.
     16,          10.,          20.,           0.
     17,          15.,          20.,           0.
     18,          15.,          20.,          10.
     19,          10.,          20.,          10.
     20,          10.,        13.75,          10.
** ... 21422 like lines cut
*Element, type=C3D20R
   1,    34,    33,   401,   408,   958,   957,  2240,  2247,  5658,  5657,  5656,  5655,  5659,  5660,  5661,
       5662,  5664,  5663,  5665,  5666
   2,    41,   363,   364,    42,   849,  2202,  2203,   848,  5670,  5669,  5668,  5667,  5671,  5672,  5673,
       5674,  5676,  5675,  5677,  5678
   3,   402,   464,   435,   401,  2241,  2303,  2274,  2240,  5682,  5681,  5680,  5679,  5683,  5684,  5685,
       5686,  5688,  5687,  5689,  5665
   4,    45,   374,   371,    46,   904,  2213,  2210,   903,  5693,  5692,  5691,  5690,  5694,  5695,  5696,
       5697,  5699,  5698,  5700,  5701
   5,   388,   389,    98,    97,  2227,  2228,  1257,  1258,  5705,  5704,  5703,  5702,  5706,  5707,  5708,
       5709,  5711,  5710,  5712,  5713
   6,    95,    94,   387,   396,  1260,  1261,  2226,  2235,  5717,  5716,  5715,  5714,  5718,  5719,  5720,
       5721,  5723,  5722,  5724,  5725
   7,   417,   416,   490,   483,  2256,  2255,  2329,  2322,  5729,  5728,  5727,  5726,  5730,  5731,  5732,
       5733,  5735,  5734,  5736,  5737
   8,    93,    92,   394,   395,  1262,  1263,  2233,  2234,  5741,  5740,  5739,  5738,  5742,  5743,  5744,
       5745,  5747,  5746,  5748,  5749
   9,   415,   419,   479,   478,  2254,  2258,  2318,  2317,  5753,  5752,  5751,  5750,  5754,  5755,  5756,
       5757,  5759,  5758,  5760,  5761
  10,   378,   385,    91,    90,  2217,  2224,  1264,  1265,  5765,  5764,  5763,  5762,  5766,  5767,  5768,
       5769,  5771,  5770,  5772,  5773
** ... 9080 like lines cut
*Nset, nset=Set-1, generate
     1,  21442,      1
*Elset, elset=Set-1, generate
    1,  4550,     1
** Section: Section-1
*Solid Section, elset=Set-1, material=Material-1
,
*End Part
**  
**
** ASSEMBLY
**
*Assembly, name=Assembly
**  
*Instance, name=Part-zhijia-1, part=Part-zhijia
*End Instance
**  
*Nset, nset=Set-Fix, instance=Part-zhijia-1
     5,     6,     9,    10,    68,    69,    70,    71,    72,    73,    74,   139,   140,   141,   142,   143
   144,   145,   146,   147,   148,   149,   150,   151,   152,   153,   154,   155,   156,   199,   200,   201
   202,   203,   204,   205,  1505,  1506,  1507,  1508,  1509,  1510,  1511,  1512,  1513,  1514,  1515,  1516
  1517,  1518,  1519,  1520,  1521,  1522,  1523,  1524,  1525,  1526,  1527,  1528,  1529,  1530,  1531,  1532
  1533,  1534,  1535,  1536,  1537,  1538,  1539,  1540,  1541,  1542,  1543,  1544,  1545,  1546,  1547,  1548
  1549,  1550,  1551,  1552,  1553,  1554,  1555,  1556,  1557,  1558,  1559,  1560,  1561,  1562,  1563,  1564
  1565,  1566,  1567,  6046,  6053,  6054,  6056,  6094,  6097,  6100,  6101,  6105,  6106,  6109,  6110,  6112
  6115,  6117,  6126,  6127,  6128,  6133,  6135,  6136,  6141,  6143,  6696,  6697,  7471,  7472,  7474,  7498
  7501,  7502,  7504,  7507,  7508,  7510,  7512,  7518,  7521,  7523,  7526,  7528,  7864,  8416,  8417,  8419
  8443,  8446,  8447,  8449,  8452,  8453,  8455,  8457,  8463,  8466,  8468,  8471,  8473,  8809,  9361,  9362
  9364,  9388,  9391,  9392,  9394,  9397,  9398,  9400,  9402,  9408,  9411,  9413,  9416,  9418,  9754, 10306
 10307, 10309, 10333, 10336, 10337, 10339, 10342, 10343, 10345, 10347, 10353, 10356, 10358, 10361, 10363, 10699
 11251, 11252, 11254, 11278, 11281, 11282, 11284, 11287, 11288, 11290, 11292, 11298, 11301, 11303, 11306, 11308
 11644, 12196, 12197, 12199, 12223, 12226, 12227, 12229, 12232, 12233, 12235, 12237, 12243, 12246, 12248, 12251
 12253, 12589, 13141, 13142, 13144, 13168, 13171, 13172, 13174, 13177, 13178, 13180, 13182, 13188, 13191, 13193
 13196, 13198, 13534, 14086, 14087, 14089, 14113, 14116, 14117, 14119, 14122, 14123, 14125, 14127, 14133, 14136
 14138, 14141, 14143, 14479, 15031, 15032, 15034, 15058, 15061, 15062, 15064, 15067, 15068, 15070, 15072, 15078
 15081, 15083, 15086, 15088, 15424
*Elset, elset=Set-Fix, instance=Part-zhijia-1
   41,   46,   47,   48,   50,   51,   52,  139,  327,  332,  333,  334,  336,  337,  338,  425
  613,  618,  619,  620,  622,  623,  624,  711,  899,  904,  905,  906,  908,  909,  910,  997
 1185, 1190, 1191, 1192, 1194, 1195, 1196, 1283, 1471, 1476, 1477, 1478, 1480, 1481, 1482, 1569
 1757, 1762, 1763, 1764, 1766, 1767, 1768, 1855, 2043, 2048, 2049, 2050, 2052, 2053, 2054, 2141
 2329, 2334, 2335, 2336, 2338, 2339, 2340, 2427, 2615, 2620, 2621, 2622, 2624, 2625, 2626, 2713
*Nset, nset=Set-HT, instance=Part-zhijia-1
     1,     2,     7,     8,    13,    14,    15,    16,    17,    18,    19,    20,    21,    22,    23,    24
    25,    26,    27,    28,    29,    30,    31,    32,    33,    34,    35,    36,   112,   113,   114,   115
   116,   117,   118,   119,   120,   130,   131,   132,   133,   134,   135,   136,   137,   138,   157,   158
   159,   160,   161,   162,   163,   164,   165,   166,   167,   168,   169,   170,   237,   238,   239,   240
   241,   242,   243,   244,   245,   246,   247,   248,   249,   250,   251,   252,   253,   254,   255,   256
   257,   258,   259,   260,   261,   262,   263,   264,   265,   266,   267,   268,   269,   270,   271,   272
   273,   274,   275,   276,   277,   278,   279,   280,   281,   282,   283,   284,   285,   286,   287,   288
   289,   290,   291,   292,   293,   294,   295,   296,   297,   298,   299,   300,   301,   302,   303,   304
   305,   306,   307,   308,   309,   310,   311,   312,   313,   314,   315,   316,   317,   318,   319,   320
   321,   322,   323,   324,   325,   326,   327,   328,   329,   330,   331,   332,   333,   334,   335,   336
   337,   338,   339,   340,   341,   342,   343,   344,   345,   346,   347,   348,   349,   350,   351,   352
   353,   354,   355,   356,   357,   358,   359,   947,   948,   949,   950,   951,   952,   953,   954,   955
   956,   957,   958,   959,   960,   961,   962,   963,   964,   965,   966,   967,   968,   969,   970,   971
   972,   973,   974,   975,   976,   977,   978,   979,   980,   981,   982,   983,   984,   985,   986,   987
   988,   989,   990,   991,   992,   993,   994,   995,   996,   997,   998,   999,  1000,  1001,  1002,  1003
  1004,  1005,  1006,  1007,  1008,  1009,  1010,  1011,  1012,  1013,  1014,  1015,  1016,  1017,  1018,  1019
  1020,  1021,  1022,  1023,  1024,  1025,  1026,  1027,  1028,  1029,  1030,  1031,  1032,  1033,  1034,  1035
  1036,  1037,  1038,  1039,  1040,  1041,  1042,  1043,  1044,  1045,  1046,  1047,  1048,  1049,  1050,  1051
  1052,  1053,  1054,  1055,  1056,  1057,  1058,  1059,  1060,  1061,  1062,  1063,  1064,  1065,  1066,  1067
  1068,  1069,  1070,  1071,  1072,  1568,  1569,  1570,  1571,  1572,  1573,  1574,  1575,  1576,  1577,  1578
** ... 496 like lines cut
*Elset, elset=Set-HT, instance=Part-zhijia-1, generate
 2861,  4550,     1
*Nset, nset=Set-LT, instance=Part-zhijia-1
     1,     2,     3,     4,     5,     6,     7,     8,     9,    10,    11,    12,    23,    24,    25,    26
    27,    28,    29,    30,    31,    32,    33,    34,    35,    36,    37,    38,    39,    40,    41,    42
    43,    44,    45,    46,    47,    48,    49,    50,    51,    52,    53,    54,    55,    56,    57,    58
    59,    60,    61,    62,    63,    64,    65,    66,    67,    68,    69,    70,    71,    72,    73,    74
    75,    76,    77,    78,    79,    80,    81,    82,    83,    84,    85,    86,    87,    88,    89,    90
    91,    92,    93,    94,    95,    96,    97,    98,    99,   100,   101,   102,   103,   104,   105,   106
   107,   108,   109,   110,   111,   112,   113,   114,   115,   116,   117,   118,   119,   120,   121,   122
   123,   124,   125,   126,   127,   128,   129,   130,   131,   132,   133,   134,   135,   136,   137,   138
   139,   140,   141,   142,   143,   144,   145,   146,   147,   148,   149,   150,   151,   152,   153,   154
   155,   156,   157,   158,   159,   160,   161,   162,   163,   164,   165,   166,   167,   168,   169,   170
   171,   172,   173,   174,   175,   176,   177,   178,   179,   180,   181,   182,   183,   184,   185,   186
   187,   188,   189,   190,   191,   192,   193,   194,   195,   196,   197,   198,   199,   200,   201,   202
   203,   204,   205,   206,   207,   208,   209,   210,   211,   212,   213,   214,   215,   216,   217,   218
   219,   220,   221,   222,   223,   224,   225,   226,   227,   228,   229,   230,   231,   232,   233,   234
   235,   236,   360,   361,   362,   363,   364,   365,   366,   367,   368,   369,   370,   371,   372,   373
   374,   375,   376,   377,   378,   379,   380,   381,   382,   383,   384,   385,   386,   387,   388,   389
   390,   391,   392,   393,   394,   395,   396,   397,   398,   399,   400,   401,   402,   403,   404,   405
   406,   407,   408,   409,   410,   411,   412,   413,   414,   415,   416,   417,   418,   419,   420,   421
   422,   423,   424,   425,   426,   427,   428,   429,   430,   431,   432,   433,   434,   435,   436,   437
   438,   439,   440,   441,   442,   443,   444,   445,   446,   447,   448,   449,   450,   451,   452,   453
** ... 836 like lines cut
*Elset, elset=Set-LT, instance=Part-zhijia-1, generate
    1,  2860,     1
*Nset, nset=Set-Symm, instance=Part-zhijia-1
     1,     6,     8,     9,    13,    22,    75,    76,    77,    78,    79,    80,    81,    82,    83,    84
    85,    86,    87,    88,    89,    90,    91,    92,    93,    94,    95,    96,    97,    98,    99,   100
   101,   102,   130,   131,   132,   133,   134,   135,   136,   137,   138,   148,   149,   150,   151,   152
   153,   154,   155,   156,   171,   172,   173,   174,   175,   176,   177,   178,   179,   180,   181,   182
   183,   184,   185,   186,   187,   188,   189,   190,   191,   192,   193,   194,   195,   196,   197,   198
   237,   238,   239,   240,   241,   312,   313,   314,   315,   316,   317,   318,   319,   320,   355,   356
   357,   358,   359,  1253,  1254,  1255,  1256,  1257,  1258,  1259,  1260,  1261,  1262,  1263,  1264,  1265
  1266,  1267,  1268,  1269,  1270,  1271,  1272,  1273,  1274,  1275,  1276,  1277,  1278,  1279,  1280,  1281
  1282,  1283,  1284,  1285,  1286,  1287,  1288,  1289,  1290,  1291,  1292,  1293,  1294,  1295,  1296,  1297
  1298,  1299,  1300,  1301,  1302,  1303,  1304,  1305,  1306,  1307,  1308,  1309,  1310,  1311,  1312,  1313
  1314,  1315,  1316,  1317,  1318,  1319,  1320,  1321,  1322,  1323,  1324,  1325,  1326,  1327,  1328,  1329
  1330,  1331,  1332,  1333,  1334,  1335,  1336,  1337,  1338,  1339,  1340,  1341,  1342,  1343,  1344,  1345
  1346,  1347,  1348,  1349,  1350,  1351,  1352,  1353,  1354,  1355,  1356,  1357,  1358,  1359,  1360,  1361
  1362,  1363,  1364,  1365,  1366,  1367,  1368,  1369,  1370,  1371,  1372,  1373,  1374,  1375,  1376,  1377
  1378,  1379,  1380,  1381,  1382,  1383,  1384,  1385,  1386,  1387,  1388,  1389,  1390,  1391,  1392,  1393
  1394,  1395,  1396,  1397,  1398,  1399,  1400,  1401,  1402,  1403,  1404,  1405,  1406,  1407,  1408,  1409
  1410,  1411,  1412,  1413,  1414,  1415,  1416,  1417,  1418,  1419,  1420,  1421,  1422,  1423,  1424,  1425
  1426,  1427,  1428,  1429,  1430,  1431,  1432,  1433,  1434,  1435,  1436,  1437,  1438,  1439,  1440,  1441
  1442,  1443,  1444,  1445,  1446,  1447,  1448,  1449,  1450,  1451,  1452,  1453,  1454,  1455,  1456,  1457
  1458,  1459,  1460,  1461,  1462,  1463,  1464,  1465,  1466,  1467,  1468,  1469,  1470,  1471,  1472,  1473
** ... 52 like lines cut
*Elset, elset=Set-Symm, instance=Part-zhijia-1
    5,    6,    8,   10,   11,   29,   31,   33,   35,   37,   40,   52,   53,   56,   59,   62
   63,   68,   70,   71,   72,   78,   80,   81,   94,   98,  101,  104,  107,  291,  292,  294
  296,  297,  315,  317,  319,  321,  323,  326,  338,  339,  342,  345,  348,  349,  354,  356
  357,  358,  364,  366,  367,  380,  384,  387,  390,  393,  577,  578,  580,  582,  583,  601
  603,  605,  607,  609,  612,  624,  625,  628,  631,  634,  635,  640,  642,  643,  644,  650
  652,  653,  666,  670,  673,  676,  679,  863,  864,  866,  868,  869,  887,  889,  891,  893
  895,  898,  910,  911,  914,  917,  920,  921,  926,  928,  929,  930,  936,  938,  939,  952
  956,  959,  962,  965, 1149, 1150, 1152, 1154, 1155, 1173, 1175, 1177, 1179, 1181, 1184, 1196
 1197, 1200, 1203, 1206, 1207, 1212, 1214, 1215, 1216, 1222, 1224, 1225, 1238, 1242, 1245, 1248
 1251, 1435, 1436, 1438, 1440, 1441, 1459, 1461, 1463, 1465, 1467, 1470, 1482, 1483, 1486, 1489
 1492, 1493, 1498, 1500, 1501, 1502, 1508, 1510, 1511, 1524, 1528, 1531, 1534, 1537, 1721, 1722
 1724, 1726, 1727, 1745, 1747, 1749, 1751, 1753, 1756, 1768, 1769, 1772, 1775, 1778, 1779, 1784
 1786, 1787, 1788, 1794, 1796, 1797, 1810, 1814, 1817, 1820, 1823, 2007, 2008, 2010, 2012, 2013
 2031, 2033, 2035, 2037, 2039, 2042, 2054, 2055, 2058, 2061, 2064, 2065, 2070, 2072, 2073, 2074
 2080, 2082, 2083, 2096, 2100, 2103, 2106, 2109, 2293, 2294, 2296, 2298, 2299, 2317, 2319, 2321
 2323, 2325, 2328, 2340, 2341, 2344, 2347, 2350, 2351, 2356, 2358, 2359, 2360, 2366, 2368, 2369
 2382, 2386, 2389, 2392, 2395, 2579, 2580, 2582, 2584, 2585, 2603, 2605, 2607, 2609, 2611, 2614
 2626, 2627, 2630, 2633, 2636, 2637, 2642, 2644, 2645, 2646, 2652, 2654, 2655, 2668, 2672, 2675
 2678, 2681, 2869, 2870, 2883, 2921, 2945, 2946, 3038, 3039, 3052, 3090, 3114, 3115, 3207, 3208
 3221, 3259, 3283, 3284, 3376, 3377, 3390, 3428, 3452, 3453, 3545, 3546, 3559, 3597, 3621, 3622
 3714, 3715, 3728, 3766, 3790, 3791, 3883, 3884, 3897, 3935, 3959, 3960, 4052, 4053, 4066, 4104
 4128, 4129, 4221, 4222, 4235, 4273, 4297, 4298, 4390, 4391, 4404, 4442, 4466, 4467
*Elset, elset=_Surf-Load_S6, internal, instance=Part-zhijia-1
 2892, 2893, 2899, 3061, 3062, 3068, 3230, 3231, 3237, 3399, 3400, 3406, 3568, 3569, 3575, 3737
 3738, 3744, 3906, 3907, 3913, 4075, 4076, 4082, 4244, 4245, 4251, 4413, 4414, 4420
*Elset, elset=_Surf-Load_S4, internal, instance=Part-zhijia-1
 2895, 2896, 3064, 3065, 3233, 3234, 3402, 3403, 3571, 3572, 3740, 3741, 3909, 3910, 4078, 4079
 4247, 4248, 4416, 4417
*Surface, type=ELEMENT, name=Surf-Load
_Surf-Load_S6, S6
_Surf-Load_S4, S4
*End Assembly
** 
** MATERIALS
** 
*Material, name=Material-1
*Elastic
210000., 0.3
*Expansion
 1.18e-05,
** 
** BOUNDARY CONDITIONS
** 
** Name: BC-Fix Type: Symmetry/Antisymmetry/Encastre
*Boundary
Set-Fix, ENCASTRE
** Name: BC-Symm Type: Symmetry/Antisymmetry/Encastre
*Boundary
Set-Symm, ZSYMM
** 
** PREDEFINED FIELDS
** 
** Name: Predefined Field-1   Type: Temperature
*Initial Conditions, type=TEMPERATURE
Set-HT, 15.
** Name: Predefined Field-2   Type: Temperature
*Initial Conditions, type=TEMPERATURE
Set-LT, 15.
** ----------------------------------------------------------------
** 
** STEP: Step-15-30
** 
*Step, name=Step-15-30, nlgeom=NO
*Static
1., 1., 1e-05, 1.
** 
** LOADS
** 
** Name: Load-Surf   Type: Surface traction
*Dsload
Surf-Load, TRSHR, 30., 1., 0., 0.
** 
** OUTPUT REQUESTS
** 
*Restart, write, frequency=0
** 
** FIELD OUTPUT: F-Output-1
** 
*Output, field, variable=PRESELECT
** 
** HISTORY OUTPUT: H-Output-1
** 
*Output, history, variable=PRESELECT
*End Step
** ----------------------------------------------------------------
** 
** STEP: Step-90-30
** 
*Step, name=Step-90-30, nlgeom=NO
*Static
1., 1., 1e-05, 1.
** 
** PREDEFINED FIELDS
** 
** Name: Predefined Field-1   Type: Temperature
*Temperature
Set-HT, 90.
** 
** OUTPUT REQUESTS
** 
*Restart, write, frequency=0
** 
** FIELD OUTPUT: F-Output-1
** 
*Output, field, variable=PRESELECT
** 
** HISTORY OUTPUT: H-Output-1
** 
*Output, history, variable=PRESELECT
*End Step
** ----------------------------------------------------------------
** 
** STEP: Step-90
** 
*Step, name=Step-90, nlgeom=NO
*Static
1., 1., 1e-05, 1.
** 
** LOADS
** 
** Name: Load-Surf   Type: Surface traction
*Dsload, op=NEW
** 
** OUTPUT REQUESTS
** 
*Restart, write, frequency=0
** 
** FIELD OUTPUT: F-Output-1
** 
*Output, field, variable=PRESELECT
** 
** HISTORY OUTPUT: H-Output-1
** 
*Output, history, variable=PRESELECT
*End Step
