*Heading
** Job name: Job-cailiao-2 Model name: Model-1
** Generated by: Abaqus/CAE 2016
*Preprint, echo=NO, model=NO, history=NO, contact=NO
**
** PARTS
**
*Part, name=Part-liang
*Node
      1,          50.,           5.,           5.
      2,          50.,           4.,           5.
      3,          50.,           3.,           5.
      4,          50.,           2.,           5.
      5,          50.,           1.,           5.
      6,          50.,           0.,           5.
      7,          50.,           5.,           4.
      8,          50.,           4.,           4.
      9,          50.,           3.,           4.
     10,          50.,           2.,           4.
     11,          50.,           1.,           4.
     12,          50.,           0.,           4.
     13,          50.,           5.,           3.
     14,          50.,           4.,           3.
     15,          50.,           3.,           3.
     16,          50.,           2.,           3.
     17,          50.,           1.,           3.
     18,          50.,           0.,           3.
     19,          50.,           5.,           2.
     20,          50.,           4.,           2.
** ... 1816 like lines cut
*Element, type=C3D8R
   1,   37,   38,   44,   43,    1,    2,    8,    7
   2,   38,   39,   45,   44,    2,    3,    9,    8
   3,   39,   40,   46,   45,    3,    4,   10,    9
   4,   40,   41,   47,   46,    4,    5,   11,   10
   5,   41,   42,   48,   47,    5,    6,   12,   11
   6,   43,   44,   50,   49,    7,    8,   14,   13
   7,   44,   45,   51,   50,    8,    9,   15,   14
   8,   45,   46,   52,   51,    9,   10,   16,   15
   9,   46,   47,   53,   52,   10,   11,   17,   16
  10,   47,   48,   54,   53,   11,   12,   18,   17
  11,   49,   50,   56,   55,   13,   14,   20,   19
  12,   50,   51,   57,   56,   14,   15,   21,   20
  13,   51,   52,   58,   57,   15,   16,   22,   21
  14,   52,   53,   59,   58,   16,   17,   23,   22
  15,   53,   54,   60,   59,   17,   18,   24,   23
  16,   55,   56,   62,   61,   19,   20,   26,   25
  17,   56,   57,   63,   62,   20,   21,   27,   26
  18,   57,   58,   64,   63,   21,   22,   28,   27
  19,   58,   59,   65,   64,   22,   23,   29,   28
  20,   59,   60,   66,   65,   23,   24,   30,   29
** ... 1230 like lines cut
*Nset, nset=Set-1, generate
    1,  1836,     1
*Elset, elset=Set-1, generate
    1,  1250,     1
** Section: Section-1
*Solid Section, elset=Set-1, material=Material-1
,
*End Part
**  
**
** ASSEMBLY
**
*Assembly, name=Assembly
**  
*Instance, name=Part-liang-1, part=Part-liang
*End Instance
**  
*Nset, nset=Set-Fix, instance=Part-liang-1, generate
 1801,  1836,     1
*Elset, elset=Set-Fix, instance=Part-liang-1, generate
 1226,  1250,     1
*Elset, elset=_Surf-L_S6, internal, instance=Part-liang-1, generate
    1,  1246,     5
*Surface, type=ELEMENT, name=Surf-L
_Surf-L_S6, S6
*Elset, elset=_Surf-S_S2, internal, instance=Part-liang-1, generate
  1,  25,   1
*Surface, type=ELEMENT, name=Surf-S
_Surf-S_S2, S2
*End Assembly
** 
** MATERIALS
** 
*Material, name=Material-1
*Elastic
210000., 0.3
*Plastic
380.,0.
** 
** BOUNDARY CONDITIONS
** 
** Name: BC-Fix Type: Displacement/Rotation
*Boundary
Set-Fix, 1, 1
Set-Fix, 2, 2
Set-Fix, 3, 3
** ----------------------------------------------------------------
** 
** STEP: Step-L
** 
*Step, name=Step-L, nlgeom=NO
*Static
1., 1., 1e-05, 1.
** 
** LOADS
** 
** Name: Load-L   Type: Pressure
*Dsload
Surf-L, P, 10.
** 
** OUTPUT REQUESTS
** 
*Restart, write, frequency=0
** 
** FIELD OUTPUT: F-Output-1
** 
*Output, field, variable=PRESELECT
** 
** HISTORY OUTPUT: H-Output-1
** 
*Output, history, variable=PRESELECT
*End Step
** ----------------------------------------------------------------
** 
** STEP: Step-SL
** 
*Step, name=Step-SL, nlgeom=NO
*Static
1., 1., 1e-05, 1.
** 
** LOADS
** 
** Name: Load-S   Type: Surface traction
*Dsload
Surf-S, TRSHR, 10., 0., -1., 0.
** 
** OUTPUT REQUESTS
** 
*Restart, write, frequency=0
** 
** FIELD OUTPUT: F-Output-1
** 
*Output, field, variable=PRESELECT
** 
** HISTORY OUTPUT: H-Output-1
** 
*Output, history, variable=PRESELECT
*End Step
** ----------------------------------------------------------------
** 
** STEP: Step-S
** 
*Step, name=Step-S, nlgeom=NO
*Static
1., 1., 1e-05, 1.
** 
** LOADS
** 
** Name: Load-L   Type: Pressure
*Dsload, op=NEW
Surf-L, P, 10.
** Name: Load-S   Type: Surface traction
*Dsload, op=NEW
** 
** OUTPUT REQUESTS
** 
*Restart, write, frequency=0
** 
** FIELD OUTPUT: F-Output-1
** 
*Output, field, variable=PRESELECT
** 
** HISTORY OUTPUT: H-Output-1
** 
*Output, history, variable=PRESELECT
*End Step
