*Heading
** Job name: Job-jiechu2 Model name: Model-1
** Generated by: Abaqus/CAE 2016
*Preprint, echo=NO, model=NO, history=NO, contact=NO
**
** PARTS
**
*Part, name=Part-chongtou
*End Part
**  
*Part, name=Part-jiaju
*End Part
**  
*Part, name=Part-maopi
*Node
      1,          30.,           1.
      2,         29.5,           1.
      3,          29.,           1.
      4,         28.5,           1.
      5,          28.,           1.
      6,         27.5,           1.
      7,          27.,           1.
      8,         26.5,           1.
      9,          26.,           1.
     10,         25.5,           1.
     11,          25.,           1.
     12,         24.5,           1.
     13,          24.,           1.
     14,         23.5,           1.
     15,          23.,           1.
     16,         22.5,           1.
     17,          22.,           1.
     18,         21.5,           1.
     19,          21.,           1.
     20,         20.5,           1.
** ... 285 like lines cut
*Element, type=CPS4R
  1,   1,   2,  63,  62
  2,   2,   3,  64,  63
  3,   3,   4,  65,  64
  4,   4,   5,  66,  65
  5,   5,   6,  67,  66
  6,   6,   7,  68,  67
  7,   7,   8,  69,  68
  8,   8,   9,  70,  69
  9,   9,  10,  71,  70
 10,  10,  11,  72,  71
 11,  11,  12,  73,  72
 12,  12,  13,  74,  73
 13,  13,  14,  75,  74
 14,  14,  15,  76,  75
 15,  15,  16,  77,  76
 16,  16,  17,  78,  77
 17,  17,  18,  79,  78
 18,  18,  19,  80,  79
 19,  19,  20,  81,  80
 20,  20,  21,  82,  81
** ... 220 like lines cut
*Nset, nset=Set-1, generate
   1,  305,    1
*Elset, elset=Set-1, generate
   1,  240,    1
** Section: Section-1
*Solid Section, elset=Set-1, material=Material-1
,
*End Part
**  
*Part, name=Part-moju
*End Part
**  
**
** ASSEMBLY
**
*Assembly, name=Assembly
**  
*Instance, name=Part-chongtou-1, part=Part-chongtou
*Node
      1,           7.,          20.,           0.
*Nset, nset=Part-chongtou-1-RefPt_, internal
1, 
*Surface, type=SEGMENTS, name=Surf-chongtou
START,           0.,           1.
 LINE,           0.,          20.
 LINE,          14.,          20.
 LINE,          14., 10.8284271247462
 CIRCL, 13.4142135623731, 9.4142135623731,          12., 10.8284271247462
 LINE, 5.5857864376269, 1.58578643762691
 CIRCL, 4.17157287525381,           1., 4.17157287525381,           3.
 LINE,           0.,           1.
*Rigid Body, ref node=Part-chongtou-1-RefPt_, analytical surface=Surf-chongtou
*End Instance
**  
*Instance, name=Part-jiaju-1, part=Part-jiaju
*Node
      1,         22.5,          10.,           0.
*Nset, nset=Part-jiaju-1-RefPt_, internal
1, 
*Surface, type=SEGMENTS, name=Surf-jiaju
START,          15.,           1.
 LINE,          15.,          10.
 LINE,          30.,          10.
 LINE,          30.,           1.
 LINE,          15.,           1.
*Rigid Body, ref node=Part-jiaju-1-RefPt_, analytical surface=Surf-jiaju
*End Instance
**  
*Instance, name=Part-maopi-1, part=Part-maopi
*End Instance
**  
*Instance, name=Part-moju-1, part=Part-moju
*Node
      1,   22.9453621,  -2.44249065e-15,           0.
*Nset, nset=Part-moju-1-RefPt_, internal
1, 
*Surface, type=SEGMENTS, name=Surf-moju
START,           0.,         -10.
 LINE, 5.10927519058526,         -10.
 CIRCL, 6.59586348307959, -9.3379294632449, 5.10927519058526,          -8.
 LINE, 14.4041365169204, -0.662070536755104
 CIRCL, 15.8907248094147,           0., 15.8907248094147,          -2.
 LINE,          30.,           0.
 LINE,          30.,         -15.
 LINE,           0.,         -15.
 LINE,           0.,         -10.
*Rigid Body, ref node=Part-moju-1-RefPt_, analytical surface=Surf-moju
*End Instance
**  
*Nset, nset=Set-PL, instance=Part-maopi-1
 305,
*Nset, nset=Set-PR, instance=Part-maopi-1
 245,
*Nset, nset=Set-Pchong, instance=Part-chongtou-1
 1,
*Nset, nset=Set-Pjia, instance=Part-jiaju-1
 1,
*Nset, nset=Set-Pmo, instance=Part-moju-1
 1,
*Nset, nset=Set-maopi, instance=Part-jiaju-1
 1,
*Elset, elset=_Surf-maopi-B_S3, internal, instance=Part-maopi-1, generate
 181,  240,    1
*Surface, type=ELEMENT, name=Surf-maopi-B
_Surf-maopi-B_S3, S3
*Elset, elset=_Surf-maopi-T_S1, internal, instance=Part-maopi-1, generate
  1,  60,   1
*Surface, type=ELEMENT, name=Surf-maopi-T
_Surf-maopi-T_S1, S1
*End Assembly
** 
** MATERIALS
** 
*Material, name=Material-1
*Elastic
210000., 0.3
*Plastic
   4e+08,   0.
 4.2e+08, 0.02
   5e+08,  0.2
   6e+08,  0.5
** 
** INTERACTION PROPERTIES
** 
*Surface Interaction, name=IntProp-F
1.,
*Friction, slip tolerance=0.005
 0.1,
*Surface Interaction, name=IntProp-noF
1.,
*Friction
0.,
** 
** INTERACTIONS
** 
** Interaction: Int-1
*Contact Pair, interaction=IntProp-F, type=SURFACE TO SURFACE
Surf-maopi-B, Part-moju-1.Surf-moju
** Interaction: Int-2
*Contact Pair, interaction=IntProp-F, type=SURFACE TO SURFACE
Surf-maopi-T, Part-jiaju-1.Surf-jiaju
** Interaction: Int-3
*Contact Pair, interaction=IntProp-noF, type=SURFACE TO SURFACE
Surf-maopi-T, Part-chongtou-1.Surf-chongtou
** ----------------------------------------------------------------
** 
** STEP: Step-jiechu1
** 
*Step, name=Step-jiechu1, nlgeom=YES
*Static
1., 1., 1e-05, 1.
** 
** BOUNDARY CONDITIONS
** 
** Name: BC-PR Type: Displacement/Rotation
*Boundary
Set-PR, 2, 2
** Name: BC-Pchong Type: Displacement/Rotation
*Boundary
Set-Pchong, 1, 1
Set-Pchong, 2, 2
Set-Pchong, 6, 6
** Name: BC-Pjia Type: Displacement/Rotation
*Boundary
Set-Pjia, 1, 1
Set-Pjia, 2, 2, -1e-08
Set-Pjia, 6, 6
** Name: BC-Pmaopi Type: Symmetry/Antisymmetry/Encastre
*Boundary
Set-maopi, XSYMM
** Name: BC-Pmo Type: Displacement/Rotation
*Boundary
Set-Pmo, 1, 1
Set-Pmo, 2, 2, -1e-08
Set-Pmo, 6, 6
** 
** OUTPUT REQUESTS
** 
*Restart, write, frequency=0
** 
** FIELD OUTPUT: F-Output-1
** 
*Output, field, variable=PRESELECT
** 
** HISTORY OUTPUT: H-Output-1
** 
*Output, history, variable=PRESELECT
*End Step
** ----------------------------------------------------------------
** 
** STEP: Step-yichu
** 
*Step, name=Step-yichu, nlgeom=YES
*Static
1., 1., 1e-05, 1.
** 
** BOUNDARY CONDITIONS
** 
** Name: BC-PL Type: Displacement/Rotation
*Boundary, op=NEW
Set-PL, 2, 2
** Name: BC-PR Type: Displacement/Rotation
*Boundary, op=NEW
** Name: BC-Pchong Type: Displacement/Rotation
*Boundary, op=NEW
Set-Pchong, 1, 1
Set-Pchong, 2, 2
Set-Pchong, 6, 6
** Name: BC-Pjia Type: Displacement/Rotation
*Boundary, op=NEW
Set-Pjia, 1, 1
Set-Pjia, 2, 2, -1e-08
Set-Pjia, 6, 6
** Name: BC-Pmaopi Type: Symmetry/Antisymmetry/Encastre
*Boundary, op=NEW
Set-maopi, XSYMM
** Name: BC-Pmo Type: Displacement/Rotation
*Boundary, op=NEW
Set-Pmo, 1, 1
Set-Pmo, 2, 2, -1e-08
Set-Pmo, 6, 6
** 
** OUTPUT REQUESTS
** 
*Restart, write, frequency=0
** 
** FIELD OUTPUT: F-Output-1
** 
*Output, field, variable=PRESELECT
** 
** HISTORY OUTPUT: H-Output-1
** 
*Output, history, variable=PRESELECT
*End Step
** ----------------------------------------------------------------
** 
** STEP: Step-jiachi
** 
*Step, name=Step-jiachi, nlgeom=YES
*Static
1., 1., 1e-05, 1.
** 
** BOUNDARY CONDITIONS
** 
** Name: BC-PL Type: Displacement/Rotation
*Boundary, op=NEW
Set-PL, 2, 2
** Name: BC-Pchong Type: Displacement/Rotation
*Boundary, op=NEW
Set-Pchong, 1, 1
Set-Pchong, 2, 2
Set-Pchong, 6, 6
** Name: BC-Pjia Type: Displacement/Rotation
*Boundary, op=NEW
Set-Pjia, 1, 1
Set-Pjia, 6, 6
** Name: BC-Pmaopi Type: Symmetry/Antisymmetry/Encastre
*Boundary, op=NEW
Set-maopi, XSYMM
** Name: BC-Pmo Type: Displacement/Rotation
*Boundary, op=NEW
Set-Pmo, 1, 1
Set-Pmo, 2, 2, -1e-08
Set-Pmo, 6, 6
** 
** LOADS
** 
** Name: Load-jia   Type: Concentrated force
*Cload
Set-Pjia, 2, -440000.
** 
** OUTPUT REQUESTS
** 
*Restart, write, frequency=0
** 
** FIELD OUTPUT: F-Output-1
** 
*Output, field, variable=PRESELECT
** 
** HISTORY OUTPUT: H-Output-1
** 
*Output, history, variable=PRESELECT
*End Step
** ----------------------------------------------------------------
** 
** STEP: Step-jiechu2
** 
*Step, name=Step-jiechu2, nlgeom=YES
*Static
0.1, 1., 1e-05, 1.
** 
** BOUNDARY CONDITIONS
** 
** Name: BC-PL Type: Displacement/Rotation
*Boundary, op=NEW
** Name: BC-Pchong Type: Displacement/Rotation
*Boundary, op=NEW
Set-Pchong, 1, 1
Set-Pchong, 2, 2, -0.001
Set-Pchong, 6, 6
** Name: BC-Pjia Type: Displacement/Rotation
*Boundary, op=NEW
Set-Pjia, 1, 1
Set-Pjia, 6, 6
** Name: BC-Pmaopi Type: Symmetry/Antisymmetry/Encastre
*Boundary, op=NEW
Set-maopi, XSYMM
** Name: BC-Pmo Type: Displacement/Rotation
*Boundary, op=NEW
Set-Pmo, 1, 1
Set-Pmo, 2, 2, -1e-08
Set-Pmo, 6, 6
** 
** LOADS
** 
** Name: Load-fangzhen   Type: Pressure
*Dsload
Surf-maopi-T, P, -100.
** 
** OUTPUT REQUESTS
** 
*Restart, write, frequency=0
** 
** FIELD OUTPUT: F-Output-1
** 
*Output, field, variable=PRESELECT
** 
** HISTORY OUTPUT: H-Output-1
** 
*Output, history, variable=PRESELECT
*End Step
** ----------------------------------------------------------------
** 
** STEP: Step-chongya
** 
*Step, name=Step-chongya, nlgeom=YES
*Static
0.0001, 1., 1e-06, 1.
** 
** BOUNDARY CONDITIONS
** 
** Name: BC-Pchong Type: Displacement/Rotation
*Boundary
Set-Pchong, 2, 2, -10.
** 
** LOADS
** 
** Name: Load-fangzhen   Type: Pressure
*Dsload, op=NEW
** 
** OUTPUT REQUESTS
** 
*Restart, write, frequency=0
** 
** FIELD OUTPUT: F-Output-1
** 
*Output, field, variable=PRESELECT
** 
** HISTORY OUTPUT: H-Output-1
** 
*Output, history, variable=PRESELECT
*End Step
