*Heading
** Job name: Job-tiegui Model name: Model-1
** Generated by: Abaqus/CAE 2016
*Preprint, echo=NO, model=NO, history=NO, contact=NO
**
** PARTS
**
*Part, name=Part-tiegui
*Node
      1,           0.,           0.,           0.
      2,           0.,         120.,           0.
      3,          35.,         120.,           0.
      4,          38.,          88.,           0.
      5,          12.,          88.,           0.
      6,          12.,          28.,           0.
      7,          60.,          24.,           0.
      8,          60.,           0.,           0.
      9,           0.,          7.5,           0.
     10,           0.,          15.,           0.
     11,           0.,         22.5,           0.
     12,           0.,          30.,           0.
     13,           0.,         37.5,           0.
     14,           0.,          45.,           0.
     15,           0.,         52.5,           0.
     16,           0.,          60.,           0.
     17,           0.,         67.5,           0.
     18,           0.,          75.,           0.
     19,           0.,         82.5,           0.
     20,           0.,          90.,           0.
** ... 6271 like lines cut
*Element, type=C3D20R
   1,   83,   73,   74,   82,  184,  174,  175,  183, 1721, 1720, 1719, 1718, 1722, 1723, 1724,
      1725, 1727, 1726, 1728, 1729
   2,   65,   22,   21,   53,  166,  123,  122,  154, 1733, 1732, 1731, 1730, 1734, 1735, 1736,
      1737, 1739, 1738, 1740, 1741
   3,   85,   89,   79,   87,  186,  190,  180,  188, 1745, 1744, 1743, 1742, 1746, 1747, 1748,
      1749, 1751, 1750, 1752, 1753
   4,   51,   81,   70,   52,  152,  182,  171,  153, 1757, 1756, 1755, 1754, 1758, 1759, 1760,
      1761, 1763, 1762, 1764, 1765
   5,   41,   40,   73,   72,  142,  141,  174,  173, 1769, 1768, 1767, 1766, 1770, 1771, 1772,
      1773, 1775, 1774, 1726, 1776
   6,   48,   55,   69,   49,  149,  156,  170,  150, 1780, 1779, 1778, 1777, 1781, 1782, 1783,
      1784, 1786, 1785, 1787, 1788
   7,   10,   56,   57,   11,  111,  157,  158,  112, 1792, 1791, 1790, 1789, 1793, 1794, 1795,
      1796, 1798, 1797, 1799, 1800
   8,   12,   11,   57,   58,  113,  112,  158,  159, 1803, 1790, 1802, 1801, 1804, 1795, 1805,
      1806, 1807, 1800, 1799, 1808
   9,   92,   67,   58,   91,  193,  168,  159,  192, 1812, 1811, 1810, 1809, 1813, 1814, 1815,
      1816, 1818, 1817, 1808, 1819
  10,   60,   59,   93,   94,  161,  160,  194,  195, 1823, 1822, 1821, 1820, 1824, 1825, 1826,
      1827, 1829, 1828, 1830, 1831
** ... 2348 like lines cut
*Nset, nset=Set-1, generate
    1,  6291,     1
*Elset, elset=Set-1, generate
    1,  1184,     1
** Section: Section-1
*Solid Section, elset=Set-1, material=Material-1
,
*End Part
**  
**
** ASSEMBLY
**
*Assembly, name=Assembly
**  
*Instance, name=Part-tiegui-1, part=Part-tiegui
*End Instance
**  
*Nset, nset=Set-3, instance=Part-tiegui-1, generate
    1,  6291,     1
*Elset, elset=Set-3, instance=Part-tiegui-1, generate
    1,  1184,     1
*Nset, nset=Set-Fix, instance=Part-tiegui-1
    1,    8,   46,   47,   48,   49,   50,   51,   52,  102,  109,  147,  148,  149,  150,  151
  152,  153,  203,  210,  248,  249,  250,  251,  252,  253,  254,  304,  311,  349,  350,  351
  352,  353,  354,  355,  405,  412,  450,  451,  452,  453,  454,  455,  456,  506,  513,  551
  552,  553,  554,  555,  556,  557,  607,  614,  652,  653,  654,  655,  656,  657,  658,  708
  715,  753,  754,  755,  756,  757,  758,  759,  809,  816,  854,  855,  856,  857,  858,  859
  860,  910,  917,  955,  956,  957,  958,  959,  960,  961, 1011, 1018, 1056, 1057, 1058, 1059
 1060, 1061, 1062, 1112, 1119, 1157, 1158, 1159, 1160, 1161, 1162, 1163, 1213, 1220, 1258, 1259
 1260, 1261, 1262, 1263, 1264, 1314, 1321, 1359, 1360, 1361, 1362, 1363, 1364, 1365, 1415, 1422
 1460, 1461, 1462, 1463, 1464, 1465, 1466, 1516, 1523, 1561, 1562, 1563, 1564, 1565, 1566, 1567
 1617, 1624, 1662, 1663, 1664, 1665, 1666, 1667, 1668, 1754, 1761, 1763, 1765, 1777, 1784, 1786
 1788, 1996, 2001, 2003, 2028, 2029, 2032, 2042, 2043, 2045, 2046, 2051, 2053, 2066, 2067, 2069
 2082, 2083, 2194, 2196, 2198, 2209, 2211, 2213, 2347, 2349, 2364, 2367, 2373, 2375, 2378, 2380
 2387, 2389, 2396, 2469, 2471, 2473, 2484, 2486, 2488, 2622, 2624, 2639, 2642, 2648, 2650, 2653
 2655, 2662, 2664, 2671, 2744, 2746, 2748, 2759, 2761, 2763, 2897, 2899, 2914, 2917, 2923, 2925
 2928, 2930, 2937, 2939, 2946, 3019, 3021, 3023, 3034, 3036, 3038, 3172, 3174, 3189, 3192, 3198
 3200, 3203, 3205, 3212, 3214, 3221, 3294, 3296, 3298, 3309, 3311, 3313, 3447, 3449, 3464, 3467
 3473, 3475, 3478, 3480, 3487, 3489, 3496, 3569, 3571, 3573, 3584, 3586, 3588, 3722, 3724, 3739
 3742, 3748, 3750, 3753, 3755, 3762, 3764, 3771, 3844, 3846, 3848, 3859, 3861, 3863, 3997, 3999
 4014, 4017, 4023, 4025, 4028, 4030, 4037, 4039, 4046, 4119, 4121, 4123, 4134, 4136, 4138, 4272
 4274, 4289, 4292, 4298, 4300, 4303, 4305, 4312, 4314, 4321, 4394, 4396, 4398, 4409, 4411, 4413
** ... 8 like lines cut
*Elset, elset=Set-Fix, instance=Part-tiegui-1
    4,    6,   31,   34,   36,   37,   40,   44,   78,   80,  105,  108,  110,  111,  114,  118
  152,  154,  179,  182,  184,  185,  188,  192,  226,  228,  253,  256,  258,  259,  262,  266
  300,  302,  327,  330,  332,  333,  336,  340,  374,  376,  401,  404,  406,  407,  410,  414
  448,  450,  475,  478,  480,  481,  484,  488,  522,  524,  549,  552,  554,  555,  558,  562
  596,  598,  623,  626,  628,  629,  632,  636,  670,  672,  697,  700,  702,  703,  706,  710
  744,  746,  771,  774,  776,  777,  780,  784,  818,  820,  845,  848,  850,  851,  854,  858
  892,  894,  919,  922,  924,  925,  928,  932,  966,  968,  993,  996,  998,  999, 1002, 1006
 1040, 1042, 1067, 1070, 1072, 1073, 1076, 1080, 1114, 1116, 1141, 1144, 1146, 1147, 1150, 1154
*Nset, nset=Set-Symm, instance=Part-tiegui-1
    1,    2,    9,   10,   11,   12,   13,   14,   15,   16,   17,   18,   19,   20,   21,   22
   23,  102,  103,  110,  111,  112,  113,  114,  115,  116,  117,  118,  119,  120,  121,  122
  123,  124,  203,  204,  211,  212,  213,  214,  215,  216,  217,  218,  219,  220,  221,  222
  223,  224,  225,  304,  305,  312,  313,  314,  315,  316,  317,  318,  319,  320,  321,  322
  323,  324,  325,  326,  405,  406,  413,  414,  415,  416,  417,  418,  419,  420,  421,  422
  423,  424,  425,  426,  427,  506,  507,  514,  515,  516,  517,  518,  519,  520,  521,  522
  523,  524,  525,  526,  527,  528,  607,  608,  615,  616,  617,  618,  619,  620,  621,  622
  623,  624,  625,  626,  627,  628,  629,  708,  709,  716,  717,  718,  719,  720,  721,  722
  723,  724,  725,  726,  727,  728,  729,  730,  809,  810,  817,  818,  819,  820,  821,  822
  823,  824,  825,  826,  827,  828,  829,  830,  831,  910,  911,  918,  919,  920,  921,  922
  923,  924,  925,  926,  927,  928,  929,  930,  931,  932, 1011, 1012, 1019, 1020, 1021, 1022
 1023, 1024, 1025, 1026, 1027, 1028, 1029, 1030, 1031, 1032, 1033, 1112, 1113, 1120, 1121, 1122
 1123, 1124, 1125, 1126, 1127, 1128, 1129, 1130, 1131, 1132, 1133, 1134, 1213, 1214, 1221, 1222
 1223, 1224, 1225, 1226, 1227, 1228, 1229, 1230, 1231, 1232, 1233, 1234, 1235, 1314, 1315, 1322
 1323, 1324, 1325, 1326, 1327, 1328, 1329, 1330, 1331, 1332, 1333, 1334, 1335, 1336, 1415, 1416
 1423, 1424, 1425, 1426, 1427, 1428, 1429, 1430, 1431, 1432, 1433, 1434, 1435, 1436, 1437, 1516
 1517, 1524, 1525, 1526, 1527, 1528, 1529, 1530, 1531, 1532, 1533, 1534, 1535, 1536, 1537, 1538
 1617, 1618, 1625, 1626, 1627, 1628, 1629, 1630, 1631, 1632, 1633, 1634, 1635, 1636, 1637, 1638
 1639, 1732, 1735, 1738, 1740, 1789, 1796, 1798, 1800, 1803, 1804, 1807, 1840, 1847, 1849, 1851
 1863, 1866, 1867, 1876, 1879, 1880, 1881, 1884, 1887, 1890, 1893, 1895, 1898, 1899, 1956, 1961
** ... 33 like lines cut
*Elset, elset=Set-Symm, instance=Part-tiegui-1
    2,    7,    8,   12,   14,   16,   17,   18,   19,   26,   28,   29,   39,   40,   47,   48
   76,   81,   82,   86,   88,   90,   91,   92,   93,  100,  102,  103,  113,  114,  121,  122
  150,  155,  156,  160,  162,  164,  165,  166,  167,  174,  176,  177,  187,  188,  195,  196
  224,  229,  230,  234,  236,  238,  239,  240,  241,  248,  250,  251,  261,  262,  269,  270
  298,  303,  304,  308,  310,  312,  313,  314,  315,  322,  324,  325,  335,  336,  343,  344
  372,  377,  378,  382,  384,  386,  387,  388,  389,  396,  398,  399,  409,  410,  417,  418
  446,  451,  452,  456,  458,  460,  461,  462,  463,  470,  472,  473,  483,  484,  491,  492
  520,  525,  526,  530,  532,  534,  535,  536,  537,  544,  546,  547,  557,  558,  565,  566
  594,  599,  600,  604,  606,  608,  609,  610,  611,  618,  620,  621,  631,  632,  639,  640
  668,  673,  674,  678,  680,  682,  683,  684,  685,  692,  694,  695,  705,  706,  713,  714
  742,  747,  748,  752,  754,  756,  757,  758,  759,  766,  768,  769,  779,  780,  787,  788
  816,  821,  822,  826,  828,  830,  831,  832,  833,  840,  842,  843,  853,  854,  861,  862
  890,  895,  896,  900,  902,  904,  905,  906,  907,  914,  916,  917,  927,  928,  935,  936
  964,  969,  970,  974,  976,  978,  979,  980,  981,  988,  990,  991, 1001, 1002, 1009, 1010
 1038, 1043, 1044, 1048, 1050, 1052, 1053, 1054, 1055, 1062, 1064, 1065, 1075, 1076, 1083, 1084
 1112, 1117, 1118, 1122, 1124, 1126, 1127, 1128, 1129, 1136, 1138, 1139, 1149, 1150, 1157, 1158
*End Assembly
** 
** MATERIALS
** 
*Material, name=Material-1
*Elastic
210000., 0.3
*Expansion
 1.18e-05,
** 
** BOUNDARY CONDITIONS
** 
** Name: BC-Fix Type: Symmetry/Antisymmetry/Encastre
*Boundary
Set-Fix, ENCASTRE
** Name: BC-Symm Type: Symmetry/Antisymmetry/Encastre
*Boundary
Set-Symm, ZSYMM
** 
** PREDEFINED FIELDS
** 
** Name: Predefined Field-1   Type: Temperature
*Initial Conditions, type=TEMPERATURE
Set-3, 15.
** ----------------------------------------------------------------
** 
** STEP: Step-1
** 
*Step, name=Step-1, nlgeom=NO
*Static
1., 1., 1e-05, 1.
** 
** PREDEFINED FIELDS
** 
** Name: Predefined Field-1   Type: Temperature
*Temperature
Set-3, 45.
** 
** OUTPUT REQUESTS
** 
*Restart, write, frequency=0
** 
** FIELD OUTPUT: F-Output-1
** 
*Output, field, variable=PRESELECT
** 
** HISTORY OUTPUT: H-Output-1
** 
*Output, history, variable=PRESELECT
*End Step
