*Heading
** Job name: Job-guagou Model name: Model-1
** Generated by: Abaqus/CAE 2016
*Preprint, echo=NO, model=NO, history=NO, contact=NO
**
** PARTS
**
*Part, name=Part-guagou
*Node
      1,           0.,         -25.,           0.
      2,           0.,          15.,           0.
      3,           5.,          15.,           0.
      4,           5.,          -3.,           0.
      5,    5.2679491,          -4.,           0.
      6,           6.,   -4.7320509,           0.
      7,           7.,          -5.,           0.
      8,          13.,          -5.,           0.
      9,          14.,   -4.7320509,           0.
     10,   14.7320509,          -4.,           0.
     11,          15.,          -3.,           0.
     12,          15.,           3.,           0.
     13,   15.2679491,           4.,           0.
     14,          16.,    4.7320509,           0.
     15,          17.,           5.,           0.
     16,          18.,           5.,           0.
     17,          19.,    4.7320509,           0.
     18,   19.7320499,           4.,           0.
     19,          20.,           3.,           0.
     20,          20.,         -5.5,           0.
** ... 28659 like lines cut
*Element, type=C3D20R
   1,   131,   130,   238,   239,   604,   603,   711,   712,  7572,  7571,  7570,  7569,  7573,  7574,  7575,
       7576,  7578,  7577,  7579,  7580
   2,    86,   222,   223,    87,   559,   695,   696,   560,  7584,  7583,  7582,  7581,  7585,  7586,  7587,
       7588,  7590,  7589,  7591,  7592
   3,    26,   132,   195,   133,   499,   605,   668,   606,  7596,  7595,  7594,  7593,  7597,  7598,  7599,
       7600,  7602,  7601,  7603,  7604
   4,   285,   193,   157,   284,   758,   666,   630,   757,  7608,  7607,  7606,  7605,  7609,  7610,  7611,
       7612,  7614,  7613,  7615,  7616
   5,   325,   385,   390,   320,   798,   858,   863,   793,  7620,  7619,  7618,  7617,  7621,  7622,  7623,
       7624,  7626,  7625,  7627,  7628
   6,   119,    25,   281,   205,   592,   498,   754,   678,  7632,  7631,  7630,  7629,  7633,  7634,  7635,
       7636,  7638,  7637,  7639,  7640
   7,   334,   349,   375,   372,   807,   822,   848,   845,  7644,  7643,  7642,  7641,  7645,  7646,  7647,
       7648,  7650,  7649,  7651,  7652
   8,   232,   231,    91,    90,   705,   704,   564,   563,  7656,  7655,  7654,  7653,  7657,  7658,  7659,
       7660,  7662,  7661,  7663,  7664
   9,   153,   115,   114,   152,   626,   588,   587,   625,  7668,  7667,  7666,  7665,  7669,  7670,  7671,
       7672,  7674,  7673,  7675,  7676
  10,   147,   110,   109,   149,   620,   583,   582,   622,  7680,  7679,  7678,  7677,  7681,  7682,  7683,
       7684,  7686,  7685,  7687,  7688
** ... 12100 like lines cut
*Nset, nset=Set-1, generate
     1,  28679,      1
*Elset, elset=Set-1, generate
    1,  6060,     1
** Section: Section-1
*Solid Section, elset=Set-1, material=Material-1
,
*End Part
**  
**
** ASSEMBLY
**
*Assembly, name=Assembly
**  
*Instance, name=Part-guagou-1, part=Part-guagou
*End Instance
**  
*Nset, nset=Set-Fix, instance=Part-guagou-1
     1,     2,    27,    28,    29,    30,    31,    32,    33,    34,    35,    36,    37,    38,    39,    40
    41,    42,    43,    44,    45,    46,    47,    48,    49,    50,    51,    52,    53,    54,    55,    56
    57,    58,    59,    60,    61,    62,    63,    64,    65,    66,   474,   475,   500,   501,   502,   503
   504,   505,   506,   507,   508,   509,   510,   511,   512,   513,   514,   515,   516,   517,   518,   519
   520,   521,   522,   523,   524,   525,   526,   527,   528,   529,   530,   531,   532,   533,   534,   535
   536,   537,   538,   539,   947,   948,   973,   974,   975,   976,   977,   978,   979,   980,   981,   982
   983,   984,   985,   986,   987,   988,   989,   990,   991,   992,   993,   994,   995,   996,   997,   998
   999,  1000,  1001,  1002,  1003,  1004,  1005,  1006,  1007,  1008,  1009,  1010,  1011,  1012,  1420,  1421
  1446,  1447,  1448,  1449,  1450,  1451,  1452,  1453,  1454,  1455,  1456,  1457,  1458,  1459,  1460,  1461
  1462,  1463,  1464,  1465,  1466,  1467,  1468,  1469,  1470,  1471,  1472,  1473,  1474,  1475,  1476,  1477
  1478,  1479,  1480,  1481,  1482,  1483,  1484,  1485,  1893,  1894,  1919,  1920,  1921,  1922,  1923,  1924
  1925,  1926,  1927,  1928,  1929,  1930,  1931,  1932,  1933,  1934,  1935,  1936,  1937,  1938,  1939,  1940
  1941,  1942,  1943,  1944,  1945,  1946,  1947,  1948,  1949,  1950,  1951,  1952,  1953,  1954,  1955,  1956
  1957,  1958,  2366,  2367,  2392,  2393,  2394,  2395,  2396,  2397,  2398,  2399,  2400,  2401,  2402,  2403
  2404,  2405,  2406,  2407,  2408,  2409,  2410,  2411,  2412,  2413,  2414,  2415,  2416,  2417,  2418,  2419
  2420,  2421,  2422,  2423,  2424,  2425,  2426,  2427,  2428,  2429,  2430,  2431,  2839,  2840,  2865,  2866
  2867,  2868,  2869,  2870,  2871,  2872,  2873,  2874,  2875,  2876,  2877,  2878,  2879,  2880,  2881,  2882
  2883,  2884,  2885,  2886,  2887,  2888,  2889,  2890,  2891,  2892,  2893,  2894,  2895,  2896,  2897,  2898
  2899,  2900,  2901,  2902,  2903,  2904,  3312,  3313,  3338,  3339,  3340,  3341,  3342,  3343,  3344,  3345
  3346,  3347,  3348,  3349,  3350,  3351,  3352,  3353,  3354,  3355,  3356,  3357,  3358,  3359,  3360,  3361
** ... 103 like lines cut
*Elset, elset=Set-Fix, instance=Part-guagou-1
   32,   33,   35,   37,   38,   39,   41,   42,   44,   45,   55,   57,   61,   62,   63,   67
   71,   75,   79,  115,  118,  123,  124,  126,  150,  151,  152,  153,  154,  155,  156,  157
  160,  166,  170,  171,  172,  173,  174,  175,  178,  436,  437,  439,  441,  442,  443,  445
  446,  448,  449,  459,  461,  465,  466,  467,  471,  475,  479,  483,  519,  522,  527,  528
  530,  554,  555,  556,  557,  558,  559,  560,  561,  564,  570,  574,  575,  576,  577,  578
  579,  582,  840,  841,  843,  845,  846,  847,  849,  850,  852,  853,  863,  865,  869,  870
  871,  875,  879,  883,  887,  923,  926,  931,  932,  934,  958,  959,  960,  961,  962,  963
  964,  965,  968,  974,  978,  979,  980,  981,  982,  983,  986, 1244, 1245, 1247, 1249, 1250
 1251, 1253, 1254, 1256, 1257, 1267, 1269, 1273, 1274, 1275, 1279, 1283, 1287, 1291, 1327, 1330
 1335, 1336, 1338, 1362, 1363, 1364, 1365, 1366, 1367, 1368, 1369, 1372, 1378, 1382, 1383, 1384
 1385, 1386, 1387, 1390, 1648, 1649, 1651, 1653, 1654, 1655, 1657, 1658, 1660, 1661, 1671, 1673
 1677, 1678, 1679, 1683, 1687, 1691, 1695, 1731, 1734, 1739, 1740, 1742, 1766, 1767, 1768, 1769
 1770, 1771, 1772, 1773, 1776, 1782, 1786, 1787, 1788, 1789, 1790, 1791, 1794, 2052, 2053, 2055
 2057, 2058, 2059, 2061, 2062, 2064, 2065, 2075, 2077, 2081, 2082, 2083, 2087, 2091, 2095, 2099
 2135, 2138, 2143, 2144, 2146, 2170, 2171, 2172, 2173, 2174, 2175, 2176, 2177, 2180, 2186, 2190
 2191, 2192, 2193, 2194, 2195, 2198, 2456, 2457, 2459, 2461, 2462, 2463, 2465, 2466, 2468, 2469
 2479, 2481, 2485, 2486, 2487, 2491, 2495, 2499, 2503, 2539, 2542, 2547, 2548, 2550, 2574, 2575
 2576, 2577, 2578, 2579, 2580, 2581, 2584, 2590, 2594, 2595, 2596, 2597, 2598, 2599, 2602, 2860
 2861, 2863, 2865, 2866, 2867, 2869, 2870, 2872, 2873, 2883, 2885, 2889, 2890, 2891, 2895, 2899
 2903, 2907, 2943, 2946, 2951, 2952, 2954, 2978, 2979, 2980, 2981, 2982, 2983, 2984, 2985, 2988
** ... 19 like lines cut
*Nset, nset=Set-Symm, instance=Part-guagou-1
  7096,  7097,  7098,  7099,  7100,  7101,  7102,  7103,  7104,  7105,  7106,  7107,  7108,  7109,  7110,  7111
  7112,  7113,  7114,  7115,  7116,  7117,  7118,  7119,  7120,  7121,  7122,  7123,  7124,  7125,  7126,  7127
  7128,  7129,  7130,  7131,  7132,  7133,  7134,  7135,  7136,  7137,  7138,  7139,  7140,  7141,  7142,  7143
  7144,  7145,  7146,  7147,  7148,  7149,  7150,  7151,  7152,  7153,  7154,  7155,  7156,  7157,  7158,  7159
  7160,  7161,  7162,  7163,  7164,  7165,  7166,  7167,  7168,  7169,  7170,  7171,  7172,  7173,  7174,  7175
  7176,  7177,  7178,  7179,  7180,  7181,  7182,  7183,  7184,  7185,  7186,  7187,  7188,  7189,  7190,  7191
  7192,  7193,  7194,  7195,  7196,  7197,  7198,  7199,  7200,  7201,  7202,  7203,  7204,  7205,  7206,  7207
  7208,  7209,  7210,  7211,  7212,  7213,  7214,  7215,  7216,  7217,  7218,  7219,  7220,  7221,  7222,  7223
  7224,  7225,  7226,  7227,  7228,  7229,  7230,  7231,  7232,  7233,  7234,  7235,  7236,  7237,  7238,  7239
  7240,  7241,  7242,  7243,  7244,  7245,  7246,  7247,  7248,  7249,  7250,  7251,  7252,  7253,  7254,  7255
  7256,  7257,  7258,  7259,  7260,  7261,  7262,  7263,  7264,  7265,  7266,  7267,  7268,  7269,  7270,  7271
  7272,  7273,  7274,  7275,  7276,  7277,  7278,  7279,  7280,  7281,  7282,  7283,  7284,  7285,  7286,  7287
  7288,  7289,  7290,  7291,  7292,  7293,  7294,  7295,  7296,  7297,  7298,  7299,  7300,  7301,  7302,  7303
  7304,  7305,  7306,  7307,  7308,  7309,  7310,  7311,  7312,  7313,  7314,  7315,  7316,  7317,  7318,  7319
  7320,  7321,  7322,  7323,  7324,  7325,  7326,  7327,  7328,  7329,  7330,  7331,  7332,  7333,  7334,  7335
  7336,  7337,  7338,  7339,  7340,  7341,  7342,  7343,  7344,  7345,  7346,  7347,  7348,  7349,  7350,  7351
  7352,  7353,  7354,  7355,  7356,  7357,  7358,  7359,  7360,  7361,  7362,  7363,  7364,  7365,  7366,  7367
  7368,  7369,  7370,  7371,  7372,  7373,  7374,  7375,  7376,  7377,  7378,  7379,  7380,  7381,  7382,  7383
  7384,  7385,  7386,  7387,  7388,  7389,  7390,  7391,  7392,  7393,  7394,  7395,  7396,  7397,  7398,  7399
  7400,  7401,  7402,  7403,  7404,  7405,  7406,  7407,  7408,  7409,  7410,  7411,  7412,  7413,  7414,  7415
** ... 65 like lines cut
*Elset, elset=Set-Symm, instance=Part-guagou-1, generate
 5657,  6060,     1
*Elset, elset=_Surf-P_S5, internal, instance=Part-guagou-1
    8,  191,  412,  595,  816,  999, 1220, 1403, 1624, 1807, 2028, 2211, 2432, 2615, 2836, 3019
 3240, 3423, 3644, 3827, 4048, 4231, 4452, 4635, 4856, 5039, 5260, 5443, 5664, 5847
*Elset, elset=_Surf-P_S3, internal, instance=Part-guagou-1
   83,  141,  146,  149,  487,  545,  550,  553,  891,  949,  954,  957, 1295, 1353, 1358, 1361
 1699, 1757, 1762, 1765, 2103, 2161, 2166, 2169, 2507, 2565, 2570, 2573, 2911, 2969, 2974, 2977
 3315, 3373, 3378, 3381, 3719, 3777, 3782, 3785, 4123, 4181, 4186, 4189, 4527, 4585, 4590, 4593
 4931, 4989, 4994, 4997, 5335, 5393, 5398, 5401, 5739, 5797, 5802, 5805
*Surface, type=ELEMENT, name=Surf-P
_Surf-P_S5, S5
_Surf-P_S3, S3
*Elset, elset=_Surf-S_S4, internal, instance=Part-guagou-1
   16,   19,   24,   90,   92,  129,  420,  423,  428,  494,  496,  533,  824,  827,  832,  898
  900,  937, 1228, 1231, 1236, 1302, 1304, 1341, 1632, 1635, 1640, 1706, 1708, 1745, 2036, 2039
 2044, 2110, 2112, 2149, 2440, 2443, 2448, 2514, 2516, 2553, 2844, 2847, 2852, 2918, 2920, 2957
 3248, 3251, 3256, 3322, 3324, 3361, 3652, 3655, 3660, 3726, 3728, 3765, 4056, 4059, 4064, 4130
 4132, 4169, 4460, 4463, 4468, 4534, 4536, 4573, 4864, 4867, 4872, 4938, 4940, 4977, 5268, 5271
 5276, 5342, 5344, 5381, 5672, 5675, 5680, 5746, 5748, 5785
*Elset, elset=_Surf-S_S6, internal, instance=Part-guagou-1
   96,   98,  102,  500,  502,  506,  904,  906,  910, 1308, 1310, 1314, 1712, 1714, 1718, 2116
 2118, 2122, 2520, 2522, 2526, 2924, 2926, 2930, 3328, 3330, 3334, 3732, 3734, 3738, 4136, 4138
 4142, 4540, 4542, 4546, 4944, 4946, 4950, 5348, 5350, 5354, 5752, 5754, 5758
*Surface, type=ELEMENT, name=Surf-S
_Surf-S_S4, S4
_Surf-S_S6, S6
*End Assembly
*Amplitude, name=Amp-1
             0.,              0.,             0.3,              2.,             0.5,              3.,              1.,              1.
** 
** MATERIALS
** 
*Material, name=Material-1
*Elastic
210000., 0.3
** 
** BOUNDARY CONDITIONS
** 
** Name: BC-2 Type: Symmetry/Antisymmetry/Encastre
*Boundary
Set-Symm, ZSYMM
** Name: BC-Fix Type: Symmetry/Antisymmetry/Encastre
*Boundary
Set-Fix, ENCASTRE
** ----------------------------------------------------------------
** 
** STEP: Step-1
** 
*Step, name=Step-1, nlgeom=NO
*Static
0.3, 1., 1e-05, 1.
** 
** LOADS
** 
** Name: Load-P   Type: Pressure
*Dsload, amplitude=Amp-1
Surf-P, P, 1000.
** 
** OUTPUT REQUESTS
** 
*Restart, write, frequency=0
** 
** FIELD OUTPUT: F-Output-1
** 
*Output, field
*Node Output
U, 
*Element Output, directions=YES
S, 
** 
** HISTORY OUTPUT: H-Output-1
** 
*Output, history, variable=PRESELECT
*End Step
** ----------------------------------------------------------------
** 
** STEP: Step-2
** 
*Step, name=Step-2, nlgeom=NO
*Static
1., 1., 1e-05, 1.
** 
** LOADS
** 
** Name: Load-S   Type: Surface traction
*Dsload
Surf-S, TRSHR, 20., 0., 1., 0.
** 
** OUTPUT REQUESTS
** 
*Restart, write, frequency=0
** 
** FIELD OUTPUT: F-Output-1
** 
*Output, field
*Node Output
U, 
*Element Output, directions=YES
S, 
** 
** HISTORY OUTPUT: H-Output-1
** 
*Output, history, variable=PRESELECT
*End Step
