*Heading
** Job name: Job-cailiao-1 Model name: Model-1
** Generated by: Abaqus/CAE 2016
*Preprint, echo=NO, model=NO, history=NO, contact=NO
**
** PARTS
**
*Part, name=Part-dian
*Node
      1,         22.5,          10.
      2,         17.5,          10.
      3,           0.,          10.
      4,           0.,           0.
      5,         22.5,           0.
      6,         22.5,        11.25
      7,         17.5,        11.25
      8,         21.5,          10.
      9,         20.5,          10.
     10,         19.5,          10.
     11,         18.5,          10.
     12,   16.5277786,          10.
     13,   15.5555553,          10.
     14,    14.583333,          10.
     15,   13.6111107,          10.
     16,   12.6388893,          10.
     17,    11.666667,          10.
     18,   10.6944447,          10.
     19,   9.72222233,          10.
     20,         8.75,          10.
** ... 250 like lines cut
*Element, type=CAX4I
  1,   1,   8,  73,  68
  2,   8,   9,  74,  73
  3,   9,  10,  75,  74
  4,  10,  11,  76,  75
  5,  11,   2,  77,  76
  6,   2,  12,  78,  77
  7,  12,  13,  79,  78
  8,  13,  14,  80,  79
  9,  14,  15,  81,  80
 10,  15,  16,  82,  81
 11,  16,  17,  83,  82
 12,  17,  18,  84,  83
 13,  18,  19,  85,  84
 14,  19,  20,  86,  85
 15,  20,  21,  87,  86
 16,  21,  22,  88,  87
 17,  22,  23,  89,  88
 18,  23,  24,  90,  89
 19,  24,  25,  91,  90
 20,  25,  26,  92,  91
** ... 215 like lines cut
*Nset, nset=Set-1, generate
   1,  270,    1
*Elset, elset=Set-1, generate
   1,  235,    1
** Section: Section-1
*Solid Section, elset=Set-1, material=Material-1
,
*End Part
**  
*Part, name=Part-tou
*End Part
**  
**
** ASSEMBLY
**
*Assembly, name=Assembly
**  
*Instance, name=Part-dian-1, part=Part-dian
*End Instance
**  
*Instance, name=Part-tou-1, part=Part-tou
*Node
      1,         8.75,          20.,           0.
*Nset, nset=Part-tou-1-RefPt_, internal
1, 
*Surface, type=SEGMENTS, name=Surf-tou-B
START,           0.,          20.
 LINE,         17.5,          20.
 LINE,         17.5,          15.
 LINE,           0.,          15.
*Rigid Body, ref node=Part-tou-1-RefPt_, analytical surface=Surf-tou-B
*End Instance
**  
*Nset, nset=Set-Fix, instance=Part-dian-1
  4,  5, 38, 39, 40, 41, 42, 43, 44, 45, 46, 47, 48, 49, 50, 51
 52, 53, 54, 55, 56, 57, 58, 59
*Elset, elset=Set-Fix, instance=Part-dian-1, generate
 208,  230,    1
*Nset, nset=Set-P, instance=Part-tou-1
 1,
*Nset, nset=Set-Symm, instance=Part-dian-1
  3,  4, 29, 30, 31, 32, 33, 34, 35, 36, 37
*Elset, elset=Set-Symm, instance=Part-dian-1, generate
  23,  230,   23
*Elset, elset=_Surf-dian-S_S4, internal, instance=Part-dian-1
 231,
*Surface, type=ELEMENT, name=Surf-dian-S
_Surf-dian-S_S4, S4
*Elset, elset=_Surf-dian-T_S1, internal, instance=Part-dian-1, generate
  6,  23,   1
*Surface, type=ELEMENT, name=Surf-dian-T
_Surf-dian-T_S1, S1
*End Assembly
** 
** MATERIALS
** 
*Material, name=Material-1
*Elastic
210000., 0.3
*Plastic
 418.,      0.
 500., 0.01581
 605., 0.02983
 829.,    0.15
 882.,    0.25
 908.,    0.35
 921.,    0.45
 932.,    0.55
 955.,    0.65
 988.,    0.75
1040.,    0.85
** 
** INTERACTION PROPERTIES
** 
*Surface Interaction, name=IntProp-1
1.,
** 
** BOUNDARY CONDITIONS
** 
** Name: BC-Fix Type: Displacement/Rotation
*Boundary
Set-Fix, 2, 2
** Name: BC-Symm Type: Displacement/Rotation
*Boundary
Set-Symm, 1, 1
** 
** INTERACTIONS
** 
** Interaction: Int-1
*Contact Pair, interaction=IntProp-1, type=SURFACE TO SURFACE
Surf-dian-T, Part-tou-1.Surf-tou-B
** Interaction: Int-2
*Contact Pair, interaction=IntProp-1, type=SURFACE TO SURFACE
Surf-dian-S, Part-tou-1.Surf-tou-B
** ----------------------------------------------------------------
** 
** STEP: Step-jiechu
** 
*Step, name=Step-jiechu, nlgeom=YES
*Static
1., 1., 1e-05, 1.
** 
** BOUNDARY CONDITIONS
** 
** Name: BC-P Type: Displacement/Rotation
*Boundary
Set-P, 1, 1
Set-P, 2, 2, -5.01
Set-P, 6, 6
** 
** OUTPUT REQUESTS
** 
*Restart, write, frequency=0
** 
** FIELD OUTPUT: F-Output-1
** 
*Output, field, variable=PRESELECT
** 
** HISTORY OUTPUT: H-Output-1
** 
*Output, history, variable=PRESELECT
*End Step
** ----------------------------------------------------------------
** 
** STEP: Step-jiya
** 
*Step, name=Step-jiya, nlgeom=YES
*Static
0.05, 1., 1e-05, 0.05
** 
** BOUNDARY CONDITIONS
** 
** Name: BC-P Type: Displacement/Rotation
*Boundary
Set-P, 2, 2, -6.5
** 
** OUTPUT REQUESTS
** 
*Restart, write, frequency=0
** 
** FIELD OUTPUT: F-Output-1
** 
*Output, field, variable=PRESELECT
** 
** HISTORY OUTPUT: H-Output-1
** 
*Output, history, variable=PRESELECT
*End Step
