*Heading
** Job name: Job-chandou Model name: Model-1
** Generated by: Abaqus/CAE 2016
*Preprint, echo=NO, model=NO, history=NO, contact=NO
**
** PARTS
**
*Part, name=Part-chandou
*Node
      1,          50.,   682.492859,         670.
      2,          50.,    641.69281,         670.
      3,           0.,    641.69281,         670.
      4,           0.,   669.098328,         670.
      5,   27.6393204,   713.819641,         670.
      6,    174.04718,   787.023621,         670.
      7,   224.142883,   783.904724,         670.
      8,   477.735016,   614.843323,         670.
      9,         500.,   573.240784,         670.
     10,         500.,   140.990189,         670.
     11,   459.805817,   91.9611588,         670.
     12,        -125.,         -25.,         670.
     13,           0.,          50.,         670.
     14,           0.,   50.0028343,         670.
     15,   411.298859,   145.415024,         670.
     16,         450.,   194.121658,         670.
     17,         450.,   559.927795,         670.
     18,   427.727448,   601.535339,         670.
     19,   220.540741,   739.605347,         670.
     20,   170.452621,   742.719177,         670.
** ... 17582 like lines cut
*Element, type=C3D8R
   1,  1725,  1836,   116,   117, 10774, 10885,  3490,  3491
   2,     4,   119,  1853,  1747,   442,  3468, 10902, 10796
   3,  1853,  1854,  1866,  1867, 10902, 10903, 10915, 10916
   4,  1732,   266,     1,  1739, 10781,  2032,   278, 10788
   5,  1867,  1725,  1747,  1853, 10916, 10774, 10796, 10902
   6,  1855,  1732,  1739,  1748, 10904, 10781, 10788, 10797
   7,  1731,  1734,   265,  1736, 10780, 10783,  2031, 10785
   8,   127,  1730,  1733,   126,  3375, 10779, 10782,  3374
   9,   261,  1840,  1862,    20,  2027, 10889, 10911,   277
  10,   128,  1737,  1730,   127,  3376, 10786, 10779,  3375
  11,  1837,  1746,  1744,   260, 10886, 10795, 10793,  3524
  12,  1746,  1856,  1743,  1744, 10795, 10905, 10792, 10793
  13,  1803,  1805,   133,   134, 10852, 10854,  3194,  3195
  14,   258,  1805,  1803,   257,  3577, 10854, 10852,  3576
  15,  1856,  1857,  1858,  1743, 10905, 10906, 10907, 10792
  16,   130,  1746,  1745,     6,  3347, 10795, 10794,   420
  17,  1738,  1837,  1862,  1737, 10787, 10886, 10911, 10786
  18,  1745,  1746,  1837,  1738, 10794, 10795, 10886, 10787
  19,   134,   135,  1804,  1803,  3195,  3196, 10853, 10852
  20,  1804,   256,   257,  1803, 10853,  3575,  3576, 10852
** ... 12452 like lines cut
*Nset, nset=Set-1, generate
     1,  17602,      1
*Elset, elset=Set-1, generate
     1,  12472,      1
** Section: Section-1
*Solid Section, elset=Set-1, material=Material-1
,
*End Part
**  
**
** ASSEMBLY
**
*Assembly, name=Assembly
**  
*Instance, name=Part-chandou-1, part=Part-chandou
*End Instance
**  
*Nset, nset=Set-Fix, instance=Part-chandou-1
   109,   110,  1648,  1649,  1650,  1651,  1652,  1653,  1654,  1655,  1656,  1657,  1658,  1687,  1688,  1689
  1690,  1691,  1692,  1693,  1694,  1695,  1696,  1697, 10610, 10611, 10612, 10613, 10614, 10615, 10616, 10617
 10618, 10619, 10620, 10621, 10622, 10623, 10624, 10625, 10626, 10627, 10628, 10629, 10630, 10631, 10632, 10633
 10634, 10635, 10636, 10637, 10638, 10639, 10640, 10641, 10642, 10643, 10644, 10645, 10646, 10647, 10648, 10649
 10650, 10651, 10652, 10653, 10654, 10655, 10656, 10657, 10658, 10659, 10660, 10661, 10662, 10663, 10664, 10665
 10666, 10667, 10668, 10669, 10670, 10671, 10672, 10673, 10674, 10675, 10676, 10677, 10678, 10679, 10680, 10681
 10682, 10683, 10684, 10685, 10686, 10687, 10688, 10689, 10690, 10691, 10692, 10693
*Elset, elset=Set-Fix, instance=Part-chandou-1
 11918, 11922, 11923, 11928, 11932, 11943, 11947, 11952, 11953, 11956, 11958, 11959, 11988, 11992, 11993, 11998
 12002, 12013, 12017, 12022, 12023, 12026, 12028, 12029, 12058, 12062, 12063, 12068, 12072, 12083, 12087, 12092
 12093, 12096, 12098, 12099, 12128, 12132, 12133, 12138, 12142, 12153, 12157, 12162, 12163, 12166, 12168, 12169
 12198, 12202, 12203, 12208, 12212, 12223, 12227, 12232, 12233, 12236, 12238, 12239, 12268, 12272, 12273, 12278
 12282, 12293, 12297, 12302, 12303, 12306, 12308, 12309, 12338, 12342, 12343, 12348, 12352, 12363, 12367, 12372
 12373, 12376, 12378, 12379, 12408, 12412, 12413, 12418, 12422, 12433, 12437, 12442, 12443, 12446, 12448, 12449
*End Assembly
** 
** MATERIALS
** 
*Material, name=Material-1
*Density
 7.8e-09,
*Elastic
210000., 0.3
** 
** BOUNDARY CONDITIONS
** 
** Name: BC-Fix Type: Symmetry/Antisymmetry/Encastre
*Boundary
Set-Fix, ENCASTRE
** ----------------------------------------------------------------
** 
** STEP: Step-Freq
** 
*Step, name=Step-Freq, nlgeom=NO, perturbation
*Frequency, eigensolver=Lanczos, sim=NO, acoustic coupling=on, normalization=displacement
30, , , , , 
** 
** OUTPUT REQUESTS
** 
*Restart, write, frequency=1
** 
** FIELD OUTPUT: F-Output-1
** 
*Output, field, variable=PRESELECT
*End Step
