*Heading
** Job name: Job-jiechu1 Model name: Model-1
** Generated by: Abaqus/CAE 2016
*Preprint, echo=NO, model=NO, history=NO, contact=NO
**
** PARTS
**
*Part, name=Part-ban
*Node
      1,          20.,          10.
      2,          19.,          10.
      3,          18.,          10.
      4,          17.,          10.
      5,          16.,          10.
      6,          15.,          10.
      7,          14.,          10.
      8,          13.,          10.
      9,          12.,          10.
     10,          11.,          10.
     11,          10.,          10.
     12,           9.,          10.
     13,           8.,          10.
     14,           7.,          10.
     15,           6.,          10.
     16,           5.,          10.
     17,           4.,          10.
     18,           3.,          10.
     19,           2.,          10.
     20,           1.,          10.
** ... 431 like lines cut
*Element, type=CPS4R
  1,   1,   2,  43,  42
  2,   2,   3,  44,  43
  3,   3,   4,  45,  44
  4,   4,   5,  46,  45
  5,   5,   6,  47,  46
  6,   6,   7,  48,  47
  7,   7,   8,  49,  48
  8,   8,   9,  50,  49
  9,   9,  10,  51,  50
 10,  10,  11,  52,  51
 11,  11,  12,  53,  52
 12,  12,  13,  54,  53
 13,  13,  14,  55,  54
 14,  14,  15,  56,  55
 15,  15,  16,  57,  56
 16,  16,  17,  58,  57
 17,  17,  18,  59,  58
 18,  18,  19,  60,  59
 19,  19,  20,  61,  60
 20,  20,  21,  62,  61
** ... 380 like lines cut
*Nset, nset=Set-1, generate
   1,  451,    1
*Elset, elset=Set-1, generate
   1,  400,    1
** Section: Section-1
*Solid Section, elset=Set-1, material=Material-1
,
*End Part
**  
*Part, name=Part-pan
*End Part
**  
**
** ASSEMBLY
**
*Assembly, name=Assembly
**  
*Instance, name=Part-ban-1, part=Part-ban
*End Instance
**  
*Instance, name=Part-pan-1, part=Part-pan
*Node
      1,  -9.18485047e-16,          20.,           0.
*Nset, nset=Part-pan-1-RefPt_, internal
1, 
*Surface, type=SEGMENTS, name=Surf-pan
START,           0.,          10.
 CIRCL,          -5.,          15.,           0.,          15.
 CIRCL,           0.,          20.,           0.,          15.
 CIRCL,           5.,          15.,           0.,          15.
 CIRCL,           0.,          10.,           0.,          15.
*Rigid Body, ref node=Part-pan-1-RefPt_, analytical surface=Surf-pan
*End Instance
**  
*Nset, nset=Set-Fix, instance=Part-ban-1, generate
 411,  451,    1
*Elset, elset=Set-Fix, instance=Part-ban-1, generate
 361,  400,    1
*Nset, nset=Set-Point, instance=Part-pan-1
 1,
*Elset, elset=_Surf-ban_S1, internal, instance=Part-ban-1, generate
  1,  40,   1
*Surface, type=ELEMENT, name=Surf-ban
_Surf-ban_S1, S1
*End Assembly
** 
** MATERIALS
** 
*Material, name=Material-1
*Elastic
210000., 0.3
** 
** INTERACTION PROPERTIES
** 
*Surface Interaction, name=IntProp-1
1.,
*Friction
0.,
** 
** BOUNDARY CONDITIONS
** 
** Name: BC-Fix Type: Symmetry/Antisymmetry/Encastre
*Boundary
Set-Fix, ENCASTRE
** Name: BC-Point Type: Displacement/Rotation
*Boundary
Set-Point, 1, 1
Set-Point, 6, 6
** 
** INTERACTIONS
** 
** Interaction: Int-1
*Contact Pair, interaction=IntProp-1, type=SURFACE TO SURFACE
Surf-ban, Part-pan-1.Surf-pan
** ----------------------------------------------------------------
** 
** STEP: Step-10kN
** 
*Step, name=Step-10kN, nlgeom=YES
*Static
1., 1., 1e-05, 1.
** 
** LOADS
** 
** Name: Load-Point   Type: Concentrated force
*Cload
Set-Point, 2, -10.
** 
** OUTPUT REQUESTS
** 
*Restart, write, frequency=0
** 
** FIELD OUTPUT: F-Output-1
** 
*Output, field, variable=PRESELECT
** 
** HISTORY OUTPUT: H-Output-1
** 
*Output, history, variable=PRESELECT
*End Step
** ----------------------------------------------------------------
** 
** STEP: Step-100kN
** 
*Step, name=Step-100kN, nlgeom=YES
*Static
1., 1., 1e-05, 1.
** 
** LOADS
** 
** Name: Load-Point   Type: Concentrated force
*Cload
Set-Point, 2, -100.
** 
** OUTPUT REQUESTS
** 
*Restart, write, frequency=0
** 
** FIELD OUTPUT: F-Output-1
** 
*Output, field, variable=PRESELECT
** 
** HISTORY OUTPUT: H-Output-1
** 
*Output, history, variable=PRESELECT
*End Step
