1

   Abaqus 3DEXPERIENCE R2016x                                  Date 11-Jan-2020   Time 00:52:57
   For use by Supplied by Team-SolidSQUAD under license from Dassault Systemes or its subsidiary.



                         The Abaqus Software is a product of:

                           Dassault Systemes SIMULIA Corp.
                           1301 Atwood Avenue, Suite 101W
                              Johnston, RI 02919, USA
 


                   The Abaqus Software is available only under license
                   from Dassault Systemes or its subsidiary and may be
                   used or reproduced only in accordance with the terms
                   of such license.
 
                          On machine DESKTOP-GDPPV8K 
                          you are authorized to run
                          Abaqus/Explicit until 31-Dec-2055

                          Your site id is:  


 
                    For assistance or any other information you may
                    obtain contact information for your local office
                    from the world wide web at:

                      http://www.3ds.com/products/simulia/locations/

 
                * * * * * * * * * * * * * * * * * * * * * * * * * * * * * * 
                *                                                         * 
                *                   *****************                     * 
                *                   *  N O T I C E  *                     * 
                *                   *****************                     * 
                *                                                         * 
                *                                                         * 
                *                    Abaqus 3DEXPERIENCE R2016x                                   * 
                *                                                         * 
                *          BUILD ID: 2015_09_25-04.31.09 126547           * 
                *                                                         * 
                *                                                         * 
                *  Please make sure you are using release 3DEXPERIENCE R2016x manuals    * 
                *  plus the notes accompanying this release.              * 
                *                                                         * 
                *                                                         * 
                *                                                         * 
                *                                                         * 
                * * * * * * * * * * * * * * * * * * * * * * * * * * * * * * 


 



     PROCESSING PART, INSTANCE, AND ASSEMBLY INFORMATION
   *******************************************************


     END PROCESSING PART, INSTANCE, AND ASSEMBLY INFORMATION
   ***********************************************************




     OPTIONS BEING PROCESSED
   ***************************


  *Heading
  *Node
  *Element, type=C3D8R
  *Nset, nset=ASSEMBLY_PART-QIU-1_SET-1
  *Elset, elset=ASSEMBLY_PART-QIU-1_SET-1
  *Node
  *Element, type=C3D8R
  *Nset, nset="ASSEMBLY_BAN-1_ban fix"
  *Nset, nset=ASSEMBLY_BAN-1_SET-2
  *Elset, elset="ASSEMBLY_BAN-1_ban fix"
  *Elset, elset=ASSEMBLY_BAN-1_SET-2
  *Elset, elset=ASSEMBLY_BAN-1__SURF-1_S6
  *Elset, elset=ASSEMBLY_BAN-1__SYM_S2
  *Nset, nset=ASSEMBLY_SET-FIX
  *Nset, nset=ASSEMBLY_SET-QIU
  *Nset, nset=ASSEMBLY_SET-SYMM
  *Elset, elset=ASSEMBLY_SET-FIX
  *Elset, elset=ASSEMBLY_SET-QIU
  *Elset, elset=ASSEMBLY_SET-SYMM
  *Elset, elset=ASSEMBLY__SURF-QIU_S2
  *Elset, elset=ASSEMBLY__SURF-QIU_S3
  *Elset, elset=ASSEMBLY__SURF-QIU_S4
  *material, name=PLASTIC
  *density
  *elastic
  *material, name=STEEL
  *density
  *elastic
  *solidsection, elset=ASSEMBLY_PART-QIU-1_SET-1, material=PLASTIC
  *solidsection, elset=ASSEMBLY_BAN-1_SET-2, material=STEEL
  *solidsection, elset=ASSEMBLY_PART-QIU-1_SET-1, material=PLASTIC
  *solidsection, elset=ASSEMBLY_BAN-1_SET-2, material=STEEL
  *surface, type=ELEMENT, name=ASSEMBLY_BAN-1_SURF-1
  *surface, type=ELEMENT, name=ASSEMBLY_BAN-1_SYM
  *surface, type=ELEMENT, name=ASSEMBLY_SURF-QIU
  *surface, type=ELEMENT, name=ASSEMBLY_BAN-1_SURF-1
  *surface, type=ELEMENT, name=ASSEMBLY_BAN-1_SYM
  *surface, type=ELEMENT, name=ASSEMBLY_SURF-QIU
  *surfaceinteraction, name=INTPROP-1
  *friction
  *boundary
  *boundary
  *boundary
  *boundary, op=NEW
  *boundary, op=NEW, type=VELOCITY
  *boundary, op=NEW
  *boundary, op=NEW
  *solidsection, elset=ASSEMBLY_PART-QIU-1_SET-1, material=PLASTIC
  *solidsection, elset=ASSEMBLY_BAN-1_SET-2, material=STEEL
  *initialconditions, type=VELOCITY
  *friction
  *initialconditions, type=VELOCITY
  *elementoutput, directions=YES
  *output, field
  *output, field, variable=PRESELECT
  *output, history, variable=PRESELECT
  *Step, name=Step-1, nlgeom=YES
  *Step, name=Step-1, nlgeom=YES
  *dynamic, explicit, scalefactor=0.01
  *boundary, op=NEW
  *boundary, op=NEW, type=VELOCITY
  *boundary, op=NEW
  *boundary, op=NEW
  *output, field
  *nodeoutput
  *elementoutput, directions=YES
  *output, field, variable=PRESELECT
  *output, history, variable=PRESELECT
  *endstep

 ***WARNING: OUTPUT REQUEST NFORCSO IS NOT AVAILABLE FOR THIS TYPE OF ANALYSIS

 ***WARNING: OUTPUT REQUEST NFORCSO IS NOT AVAILABLE FOR THIS TYPE OF ANALYSIS

 ***WARNING: OUTPUT REQUEST SF IS NOT AVAILABLE FOR ELEMENT TYPE C3D8R

 ***WARNING: OUTPUT REQUEST SF IS NOT AVAILABLE FOR ELEMENT TYPE C3D8R
  *surface, type=ELEMENT, name=ASSEMBLY_BAN-1_SURF-1
  *surface, type=ELEMENT, name=ASSEMBLY_BAN-1_SYM
  *surface, type=ELEMENT, name=ASSEMBLY_SURF-QIU
  *surfaceinteraction, name=INTPROP-1
  *friction
  *boundary
  *boundary
  *boundary
  *Step, name=Step-1, nlgeom=YES
  *dynamic, explicit, scalefactor=0.01
  *boundary, op=NEW
  *boundary, op=NEW, type=VELOCITY
  *boundary, op=NEW

 ***WARNING: THE OPTION *BOUNDARY,TYPE=DISPLACEMENT HAS BEEN USED; CHECK STATUS 
             FILE BETWEEN STEPS FOR WARNINGS ON ANY JUMPS PRESCRIBED ACROSS THE 
             STEPS IN DISPLACEMENT VALUES OF TRANSLATIONAL DOF. FOR ROTATIONAL 
             DOF MAKE SURE THAT THERE ARE NO SUCH JUMPS. ALL JUMPS IN 
             DISPLACEMENTS ACROSS STEPS ARE IGNORED
  *boundary, op=NEW
  *contactpair, interaction=INTPROP-1, mechanicalconstraint=PENALTY, cpset=INT-1
  *endstep

 ***WARNING: BOUNDARY CONDITIONS ON DEGREES OF FREEDOM CONSTRAINED BY A TYPE 
             BOUNDARY CONDITION ARE BEING REDEFINED ON AN INDIVIDUAL DEGREE OF 
             FREEDOM BASIS



                            P R O B L E M   S I Z E


          NUMBER OF ELEMENTS IS                                 97296
          NUMBER OF NODES IS                                   102149
          NUMBER OF NODES DEFINED BY THE USER                  102149
          TOTAL NUMBER OF VARIABLES IN THE MODEL               306447
          (DEGREES OF FREEDOM PLUS MAX NO. OF ANY LAGRANGE MULTIPLIER
           VARIABLES. INCLUDE *PRINT,SOLVE=YES TO GET THE ACTUAL NUMBER.)



                              END OF USER INPUT PROCESSING



     JOB TIME SUMMARY
       USER TIME (SEC)      =   3.5000    
       SYSTEM TIME (SEC)    =  0.50000    
       TOTAL CPU TIME (SEC) =   4.0000    
       WALLCLOCK TIME (SEC) =          4
